AquaCrop 7.1 (August 2023) - Output created on (date) : 16-01-2026   at (time) : 12:17:31

    RunNr     Day1   Month1    Year1     Rain      ETo       GD     CO2      Irri   Infilt   Runoff    Drain   Upflow        E     E/Ex       Tr      TrW   Tr/Trx    SaltIn   SaltOut    SaltUp  SaltProf     Cycle   SaltStr  FertStr  WeedStr  TempStr   ExpStr   StoStr  BioMass  Brelative   HI    Y(dry)  Y(fresh)    WPet      Bin     Bout     DayN   MonthN    YearN
                                           mm       mm  degC.day    ppm        mm       mm       mm       mm       mm       mm        %       mm       mm        %    ton/ha    ton/ha    ton/ha    ton/ha      days       %        %        %        %        %        %    ton/ha        %       %    ton/ha   ton/ha    kg/m3   ton/ha   ton/ha
   Tot(1)        1        7     2011   1077.9   2437.2   3130.7   391.85    557.2   1074.0      3.9      0.0      0.0    868.5       50    820.5    820.5      100     0.000     0.000     0.000     0.000       89        0       30        0        0        1        0    19.706       99     48.2    9.493   10.548     0.81    0.000    0.000       31       12     2011  cluster_395.PRM
   Tot(2)        1        7     2012   1074.6   2440.6   3125.6   394.06    559.2   1070.0      4.6      0.0      0.0    855.2       49    827.0    827.0      100     0.000     0.000     0.000     0.000       89        0       30        0        0        1        0    19.866       99     48.2    9.571   10.634     0.81    0.000    0.000       31       12     2012  cluster_395.PRM
   Tot(3)        1        7     2013   1166.7   2453.9   3118.5   396.74    510.5   1157.2      9.4      0.0      0.0    888.1       51    821.3    821.3      100     0.000     0.000     0.000     0.000       89        0       30        0        0        1        0    19.763       99     48.2    9.521   10.579     0.82    0.000    0.000       31       12     2013  cluster_395.PRM
   Tot(4)        1        7     2014   1130.6   2450.6   3130.7   398.81    575.3   1125.6      5.0      0.0      0.0    918.2       53    831.6    831.6      100     0.000     0.000     0.000     0.000       89        0       30        0        0        1        0    19.937       99     48.1    9.599   10.666     0.81    0.000    0.000       31       12     2014  cluster_395.PRM
   Tot(5)        1        7     2015   1034.2   2446.7   3125.8   401.01    554.1   1031.1      3.1      0.0      0.0    808.9       47    830.3    830.3      100     0.000     0.000     0.000     0.000       89        0       30        0        0        1        0    19.955       99     48.2    9.613   10.682     0.82    0.000    0.000       31       12     2015  cluster_395.PRM
