AquaCrop 7.1 (August 2023) - Output created on (date) : 16-01-2026   at (time) : 12:17:31

   Run:   1
   Day Month  Year   DAP Stage   WC(2.30)   Rain     Irri   Surf   Infilt   RO    Drain       CR    Zgwt       Ex       E     E/Ex     Trx       Tr  Tr/Trx    ETx      ET  ET/ETx      GD       Z     StExp  StSto  StSen StSalt StWeed   CC      CCw     StTr  Kc(Tr)     Trx       Tr      TrW  Tr/Trx   WP    Biomass     HI    Y(dry)  Y(fresh)  Brelative    WPet      Bin     Bout  WC(2.30) Wr(2.30)     Z       Wr    Wr(SAT)    Wr(FC)   Wr(exp)   Wr(sto)   Wr(sen)   Wr(PWP)    SaltIn    SaltOut   SaltUp   Salt(2.30)  SaltZ     Z       ECe    ECsw   StSalt  Zgwt    ECgw       WC01       WC 2       WC 3       WC 4       WC 5       WC 6       WC 7       WC 8       WC 9       WC10       WC11       WC12      ECe01      ECe 2      ECe 3      ECe 4      ECe 5      ECe 6      ECe 7      ECe 8      ECe 9      ECe10      ECe11      ECe12     Rain       ETo      Tmin      Tavg      Tmax      CO2
                                      mm      mm       mm     mm     mm     mm       mm       mm      m        mm       mm     %        mm       mm    %        mm      mm       %  degC-day     m       %      %      %      %      %      %       %       %       -        mm       mm       mm    %     g/m2    ton/ha      %    ton/ha   ton/ha       %       kg/m3   ton/ha   ton/ha      mm       mm       m       mm        mm        mm        mm        mm        mm         mm    ton/ha    ton/ha    ton/ha    ton/ha    ton/ha     m      dS/m    dS/m      %     m      dS/m       0.05       0.18       0.33       0.48       0.63       0.80       1.00       1.20       1.43       1.68       1.93       2.18       0.05       0.18       0.33       0.48       0.63       0.80       1.00       1.20       1.43       1.68       1.93       2.18       mm        mm     degC      degC      degC       ppm
     1     7  2011     1     1     268.1    10.3      0.0    0.0   10.1    0.2      0.0      0.0   -9.90     16.3     10.6     65      0.0      0.0   100     16.3    10.6      65     16.4    0.30     -9     -9     -9      0     -9     0.0     0.0      0    -9.00      0.0      0.0      0.0   100     0.0     0.000    -9.9    0.000    0.000      -9        0.00    0.000    0.000     268.1    268.1    0.30    34.1     125.1      34.6      30.7      21.8      15.5       6.9    0.000     0.000     0.000     0.000     0.000    0.30     0.00    0.00      0   -9.90   -9.00       11.2       11.7       11.7       11.7       11.7       11.7       11.7       11.7       11.7       11.7       11.7       11.7        0.0        0.0        0.0        0.0        0.0        0.0        0.0        0.0        0.0        0.0        0.0        0.0     10.3      14.8      18.7      26.2      33.8    391.85
     2     7  2011     2     1     263.4     4.6      0.0    0.0    4.6    0.0      0.0      0.0   -9.90     14.7      9.2     63      0.0      0.0   100     14.7     9.2      63     17.1    0.30     -9     -9     -9      0     -9     0.0     0.0      0    -9.00      0.0      0.0      0.0   100     0.0     0.000    -9.9    0.000    0.000      -9        0.00    0.000    0.000     263.4    263.4    0.30    29.4     125.1      34.6      30.7      20.8      15.5       6.9    0.000     0.000     0.000     0.000     0.000    0.30     0.00    0.00      0   -9.90   -9.00        6.4       11.7       11.7       11.7       11.7       11.7       11.7       11.7       11.7       11.7       11.7       11.7        0.0        0.0        0.0        0.0        0.0        0.0        0.0        0.0        0.0        0.0        0.0        0.0      4.6      13.3      20.1      26.2      32.4    391.85
     3     7  2011     3     1     262.4     8.0      0.0    0.0    8.0    0.0      0.0      0.0   -9.90     15.2      9.1     60      0.0      0.0   100     15.2     9.1      60     16.6    0.30     -9     -9     -9      0     -9     0.0     0.0      0    -9.00      0.0      0.0      0.0   100     0.0     0.000    -9.9    0.000    0.000      -9        0.00    0.000    0.000     262.4    262.4    0.30    28.4     125.1      34.6      30.7      21.1      15.5       6.9    0.000     0.000     0.000     0.000     0.000    0.30     0.00    0.00      0   -9.90   -9.00        5.4       11.7       11.7       11.7       11.7       11.7       11.7       11.7       11.7       11.7       11.7       11.7        0.0        0.0        0.0        0.0        0.0        0.0        0.0        0.0        0.0        0.0        0.0        0.0      8.0      13.8      19.2      25.8      32.5    391.85
     4     7  2011     4     1     258.9     1.5      0.0    0.0    1.5    0.0      0.0      0.0   -9.90     16.3      5.0     30      0.0      0.0   100     16.3     5.0      30     17.8    0.30     -9     -9     -9      0     -9     0.0     0.0      0    -9.00      0.0      0.0      0.0   100     0.0     0.000    -9.9    0.000    0.000      -9        0.00    0.000    0.000     258.9    258.9    0.30    24.9     125.1      34.6      30.7      21.8      15.5       6.9    0.000     0.000     0.000     0.000     0.000    0.30     0.00    0.00      0   -9.90   -9.00        1.9       11.7       11.7       11.7       11.7       11.7       11.7       11.7       11.7       11.7       11.7       11.7        0.0        0.0        0.0        0.0        0.0        0.0        0.0        0.0        0.0        0.0        0.0        0.0      1.5      14.9      21.5      28.4      35.3    391.85
     5     7  2011     5     1     258.1     4.5      0.0    0.0    4.5    0.0      0.0      0.0   -9.90     16.2      5.4     34      0.0      0.0   100     16.2     5.4      34     17.1    0.32     -9     -9     -9      0     -9     0.0     0.0      0    -9.00      0.0      0.0      0.0   100     0.0     0.000    -9.9    0.000    0.000      -9        0.00    0.000    0.000     258.1    258.1    0.32    26.4     133.5      36.9      32.8      23.2      16.5       7.4    0.000     0.000     0.000     0.000     0.000    0.32     0.00    0.00      0   -9.90   -9.00        1.2       11.6       11.7       11.7       11.7       11.7       11.7       11.7       11.7       11.7       11.7       11.7        0.0        0.0        0.0        0.0        0.0        0.0        0.0        0.0        0.0        0.0        0.0        0.0      4.5      14.7      20.2      27.3      34.4    391.85
     6     7  2011     6     1     257.8     5.2      0.0    0.0    5.2    0.0      0.0      0.0   -9.90     16.7      5.4     33      0.0      0.0   100     16.7     5.4      33     16.1    0.36     -9     -9     -9      0     -9     0.0     0.0      0    -9.00      0.0      0.0      0.0   100     0.0     0.000    -9.9    0.000    0.000      -9        0.00    0.000    0.000     257.8    257.8    0.36    30.9     150.6      41.6      37.0      26.5      18.7       8.4    0.000     0.000     0.000     0.000     0.000    0.36     0.00    0.00      0   -9.90   -9.00        1.2       11.4       11.7       11.7       11.7       11.7       11.7       11.7       11.7       11.7       11.7       11.7        0.0        0.0        0.0        0.0        0.0        0.0        0.0        0.0        0.0        0.0        0.0        0.0      5.2      15.1      18.2      26.1      34.0    391.85
     7     7  2011     7     2     259.7     8.5      0.5    0.0    8.5    0.0      0.0      0.0   -9.90     15.1      7.1     47      0.1      0.1   100     15.2     7.2      47     17.4    0.40     -9      0      0      0      0     0.4     0.4      0     0.01      0.1      0.1      0.1   100    34.3     0.003    -9.9    0.000    0.000     100        0.00    0.000    0.000     259.7    259.7    0.40    37.1     166.4      46.0      46.0      28.2      28.2       9.3    0.000     0.000     0.000     0.000     0.000    0.40     0.00    0.00      0   -9.90   -9.00        9.4        9.4        9.5       11.7       11.7       11.7       11.7       11.7       11.7       11.7       11.7       11.7        0.0        0.0        0.0        0.0        0.0        0.0        0.0        0.0        0.0        0.0        0.0        0.0      8.5      13.8      20.7      27.1      33.4    391.85
     8     7  2011     8     2     259.1     3.8      4.4    0.0    3.8    0.0      0.0      0.0   -9.90     15.5      8.7     56      0.1      0.1   100     15.6     8.8      57     16.8    0.43     -9      0      0      0      0     0.5     0.5      0     0.01      0.1      0.1      0.1   100    34.3     0.006    -9.9    0.000    0.000     100        0.00    0.000    0.000     259.1    259.1    0.43    41.1     181.2      50.1      50.1      31.1      31.1      10.2    0.000     0.000     0.000     0.000     0.000    0.43     0.00    0.00      0   -9.90   -9.00        9.5        9.5        9.5       11.2       11.7       11.7       11.7       11.7       11.7       11.7       11.7       11.7        0.0        0.0        0.0        0.0        0.0        0.0        0.0        0.0        0.0        0.0        0.0        0.0      3.8      14.2      19.6      26.4      33.3    391.85
     9     7  2011     9     2     258.6     9.6      0.1    0.0    9.6    0.0      0.0      0.0   -9.90     16.8     10.0     59      0.2      0.2   100     17.0    10.2      60     16.1    0.47      0      0      0      0      0     0.6     0.6      0     0.01      0.2      0.2      0.2   100    34.3     0.010    -9.9    0.000    0.000     100        0.00    0.000    0.000     258.6    258.6    0.47    45.0     195.4      54.0      54.0      34.8      34.8      11.0    0.000     0.000     0.000     0.000     0.000    0.47     0.00    0.00      0   -9.90   -9.00        9.6        9.6        9.6       10.5       11.7       11.7       11.7       11.7       11.7       11.7       11.7       11.7        0.0        0.0        0.0        0.0        0.0        0.0        0.0        0.0        0.0        0.0        0.0        0.0      9.6      15.4      18.2      26.3      34.5    391.85
    10     7  2011    10     2     256.8     1.2      3.7    0.0    1.2    0.0      0.0      0.0   -9.90     15.0      6.4     43      0.2      0.2   100     15.2     6.6      43     17.4    0.50      4      0      0      0      0     0.7     0.7      0     0.01      0.2      0.2      0.2   100    34.3     0.014    -9.9    0.000    0.000     100        0.00    0.000    0.000     256.8    256.8    0.50    47.0     209.1      57.8      57.8      35.5      35.5      11.9    0.000     0.000     0.000     0.000     0.000    0.50     0.00    0.00      0   -9.90   -9.00        9.4        9.4        9.5        9.8       11.7       11.7       11.7       11.7       11.7       11.7       11.7       11.7        0.0        0.0        0.0        0.0        0.0        0.0        0.0        0.0        0.0        0.0        0.0        0.0      1.2      13.8      20.8      27.1      33.4    391.85
    11     7  2011    11     2     261.3    15.3      0.0    0.0   15.1    0.2      0.0      0.0   -9.90     15.5     10.3     67      0.2      0.2   100     15.8    10.6      67     16.5    0.53      0      0      0      0      0     0.8     0.8      0     0.01      0.2      0.2      0.2   100    34.3     0.019    -9.9    0.000    0.000     100        0.00    0.000    0.000     261.3    261.3    0.53    54.5     222.3      61.4      61.4      38.3      38.3      12.6    0.000     0.000     0.000     0.000     0.000    0.53     0.00    0.00      0   -9.90   -9.00       14.0        9.4        9.5        9.8       11.7       11.7       11.7       11.7       11.7       11.7       11.7       11.7        0.0        0.0        0.0        0.0        0.0        0.0        0.0        0.0        0.0        0.0        0.0        0.0     15.3      14.3      19.0      26.1      33.2    391.85
    12     7  2011    12     2     256.5     4.5      0.4    0.0    4.5    0.0      0.0      0.0   -9.90     15.8      9.5     60      0.3      0.3   100     16.1     9.7      61     16.8    0.56      0      0      0      0      0     1.0     1.0      0     0.02      0.3      0.3      0.3   100    34.3     0.025    -9.9    0.000    0.000     100        0.00    0.000    0.000     256.5    256.5    0.56    53.1     235.2      65.0      65.0      40.8      40.8      13.4    0.000     0.000     0.000     0.000     0.000    0.56     0.00    0.00      0   -9.90   -9.00        9.5        9.5        9.5        9.5       11.6       11.7       11.7       11.7       11.7       11.7       11.7       11.7        0.0        0.0        0.0        0.0        0.0        0.0        0.0        0.0        0.0        0.0        0.0        0.0      4.5      14.6      19.5      26.7      33.9    391.85
    13     7  2011    13     2     254.8     5.5      1.7    0.0    5.5    0.0      0.0      0.0   -9.90     14.2      8.6     61      0.3      0.3   100     14.5     8.9      61     17.3    0.59      0      0      0      0      0     1.2     1.2      0     0.02      0.3      0.3      0.3   100    34.3     0.032    -9.9    0.000    0.000     100        0.00    0.000    0.000     254.8    254.8    0.59    55.4     247.7      68.4      68.4      41.2      41.2      14.1    0.000     0.000     0.000     0.000     0.000    0.59     0.00    0.00      0   -9.90   -9.00        9.3        9.3        9.4        9.4       11.0       11.7       11.7       11.7       11.7       11.7       11.7       11.7        0.0        0.0        0.0        0.0        0.0        0.0        0.0        0.0        0.0        0.0        0.0        0.0      5.5      13.2      20.5      26.4      32.3    391.85
    14     7  2011    14     2     254.4     2.9      4.9    0.0    2.9    0.0      0.0      0.0   -9.90     15.2      7.9     52      0.3      0.3   100     15.6     8.2      53     18.1    0.62      0      0      0      0      0     1.4     1.4      0     0.02      0.3      0.3      0.3   100    34.3     0.041    -9.9    0.000    0.000      99        0.00    0.000    0.000     254.4    254.4    0.62    58.7     259.9      71.8      71.8      44.6      44.6      14.8    0.000     0.000     0.000     0.000     0.000    0.62     0.00    0.00      0   -9.90   -9.00        9.5        9.5        9.5        9.5       10.3       11.7       11.7       11.7       11.7       11.7       11.7       11.7        0.0        0.0        0.0        0.0        0.0        0.0        0.0        0.0        0.0        0.0        0.0        0.0      2.9      14.2      22.1      28.4      34.6    391.85
    15     7  2011    15     2     253.2     4.3      3.5    0.0    4.3    0.0      0.0      0.0   -9.90     14.5      8.6     59      0.4      0.4   100     14.9     9.0      60     17.3    0.65      0      0      0      0      0     1.6     1.6      0     0.03      0.4      0.4      0.4   100    34.3     0.051    -9.9    0.000    0.000      99        0.00    0.000    0.000     253.2    253.2    0.65    60.7     271.9      75.1      75.1      45.8      45.8      15.6    0.000     0.000     0.000     0.000     0.000    0.65     0.00    0.00      0   -9.90   -9.00        9.4        9.4        9.4        9.4        9.8       11.7       11.7       11.7       11.7       11.7       11.7       11.7        0.0        0.0        0.0        0.0        0.0        0.0        0.0        0.0        0.0        0.0        0.0        0.0      4.3      13.5      20.6      26.7      32.9    391.85
    16     7  2011    16     2     253.3     7.0      2.9    0.0    7.0    0.0      0.0      0.0   -9.90     15.2      9.3     61      0.5      0.5   100     15.7     9.8      62     16.2    0.67      0      0      0      0      0     1.9     1.9      0     0.03      0.5      0.5      0.5   100    34.3     0.062    -9.9    0.000    0.000      99        0.00    0.000    0.000     253.3    253.3    0.67    63.6     283.6      78.3      78.3      48.8      48.8      16.2    0.000     0.000     0.000     0.000     0.000    0.67     0.00    0.00      0   -9.90   -9.00        9.5        9.5        9.5        9.5        9.6       11.7       11.7       11.7       11.7       11.7       11.7       11.7        0.0        0.0        0.0        0.0        0.0        0.0        0.0        0.0        0.0        0.0        0.0        0.0      7.0      14.3      18.4      25.6      32.8    391.85
    17     7  2011    17     2     255.6    12.8      0.0    0.0   12.7    0.1      0.0      0.0   -9.90     14.6      9.9     68      0.6      0.6   100     15.2    10.5      69     17.1    0.70      0      0      0      0      0     2.3     2.3      0     0.04      0.6      0.6      0.6   100    34.3     0.076    -9.9    0.000    0.000      99        0.00    0.000    0.000     255.6    255.6    0.70    68.5     295.2      81.5      81.5      50.2      50.2      16.9    0.000     0.000     0.000     0.000     0.000    0.70     0.00    0.00      0   -9.90   -9.00       11.8        9.5        9.5        9.5        9.6       11.7       11.7       11.7       11.7       11.7       11.7       11.7        0.0        0.0        0.0        0.0        0.0        0.0        0.0        0.0        0.0        0.0        0.0        0.0     12.8      13.8      20.2      26.6      33.1    391.85
    18     7  2011    18     2     253.1     3.0      3.7    0.0    3.0    0.0      0.0      0.0   -9.90     15.6      8.4     54      0.7      0.7   100     16.3     9.1      56     16.9    0.73      0      0      0      0      0     2.7     2.7      0     0.05      0.7      0.7      0.7   100    34.3     0.092    -9.9    0.000    0.000      99        0.00    0.000    0.000     253.1    253.1    0.73    69.7     306.5      84.6      84.6      53.7      53.7      17.6    0.000     0.000     0.000     0.000     0.000    0.73     0.00    0.00      0   -9.90   -9.00        9.5        9.5        9.6        9.6        9.6       11.4       11.7       11.7       11.7       11.7       11.7       11.7        0.0        0.0        0.0        0.0        0.0        0.0        0.0        0.0        0.0        0.0        0.0        0.0      3.0      14.9      19.7      27.0      34.4    391.85
    19     7  2011    19     2     252.8     2.3      5.8    0.0    2.3    0.0      0.0      0.0   -9.90     16.4      7.5     46      0.9      0.9   100     17.3     8.4      49     16.3    0.75      0      0      0      0      0     3.1     3.1      0     0.06      0.9      0.9      0.9   100    34.3     0.111    -9.9    0.000    0.000      99        0.00    0.000    0.000     252.8    252.8    0.75    73.1     317.7      87.7      87.7      57.1      57.1      18.3    0.000     0.000     0.000     0.000     0.000    0.75     0.00    0.00      0   -9.90   -9.00        9.6        9.6        9.7        9.7        9.7       10.9       11.7       11.7       11.7       11.7       11.7       11.7        0.0        0.0        0.0        0.0        0.0        0.0        0.0        0.0        0.0        0.0        0.0        0.0      2.3      15.8      18.5      26.8      35.1    391.85
    20     7  2011    20     2     251.7     5.7      3.6    0.0    5.7    0.0      0.0      0.0   -9.90     16.1      9.4     58      1.0      1.0   100     17.1    10.4      61     17.4    0.78      0      0      0      0      0     3.7     3.7      0     0.07      1.0      1.0      1.0   100    34.3     0.133    -9.9    0.000    0.000      99        0.00    0.000    0.000     251.7    251.7    0.78    75.4     328.7      90.8      90.8      58.8      58.8      18.9    0.000     0.000     0.000     0.000     0.000    0.78     0.00    0.00      0   -9.90   -9.00        9.6        9.6        9.7        9.7        9.7       10.4       11.7       11.7       11.7       11.7       11.7       11.7        0.0        0.0        0.0        0.0        0.0        0.0        0.0        0.0        0.0        0.0        0.0        0.0      5.7      15.6      20.9      28.4      36.0    391.85
    21     7  2011    21     2     250.4     4.8      3.9    0.0    4.8    0.0      0.0      0.0   -9.90     15.4      8.8     57      1.2      1.2   100     16.5    10.0      60     16.3    0.81      0      0      0      0      0     4.4     4.4      0     0.08      1.2      1.2      1.2   100    34.3     0.159    -9.9    0.000    0.000      99        0.00    0.000    0.000     250.4    250.4    0.81    77.2     339.6      93.8      93.8      59.8      59.8      19.5    0.000     0.000     0.000     0.000     0.000    0.81     0.00    0.00      0   -9.90   -9.00        9.6        9.6        9.6        9.6        9.6       10.0       11.7       11.7       11.7       11.7       11.7       11.7        0.0        0.0        0.0        0.0        0.0        0.0        0.0        0.0        0.0        0.0        0.0        0.0      4.8      15.1      18.7      26.4      34.1    391.85
    22     7  2011    22     2     262.6    25.1      0.0    0.0   23.8    1.4      0.0      0.0   -9.90     13.6     10.4     76      1.2      1.2   100     14.9    11.6      78     16.7    0.83      0      0      0      0      0     5.1     5.1      0     0.09      1.2      1.2      1.2   100    34.3     0.190    -9.9    0.000    0.000      99        0.00    0.000    0.000     262.6    262.6    0.83    91.9     350.3      96.7      96.7      59.1      59.1      20.2    0.000     0.000     0.000     0.000     0.000    0.83     0.00    0.00      0   -9.90   -9.00       22.0        9.6        9.6        9.6        9.6       10.0       11.7       11.7       11.7       11.7       11.7       11.7        0.0        0.0        0.0        0.0        0.0        0.0        0.0        0.0        0.0        0.0        0.0        0.0     25.1      13.6      19.3      25.8      32.2    391.85
    23     7  2011    23     2     256.8     5.2      0.0    0.0    5.2    0.0      0.0      0.0   -9.90     14.1      9.4     67      1.5      1.5   100     15.6    10.9      70     17.5    0.86      0      0      0      0      0     6.1     6.1      0     0.11      1.5      1.5      1.5   100    34.3     0.226    -9.9    0.000    0.000      99        0.00    0.000    0.000     256.8    256.8    0.86    88.7     360.9      99.7      99.7      62.2      62.2      20.8    0.000     0.000     0.000     0.000     0.000    0.86     0.00    0.00      0   -9.90   -9.00        6.6       12.2       12.0       10.8        9.6       10.0       11.7       11.7       11.7       11.7       11.7       11.7        0.0        0.0        0.0        0.0        0.0        0.0        0.0        0.0        0.0        0.0        0.0        0.0      5.2      14.3      21.1      27.6      34.1    391.85
    24     7  2011    24     2     250.7     0.8      0.0    0.0    0.8    0.0      0.0      0.0   -9.90     14.8      5.0     34      1.9      1.9   100     16.7     6.9      41     16.1    0.88      7      0      0      0      0     7.1     7.1      0     0.12      1.9      1.9      1.9   100    34.3     0.268    -9.9    0.000    0.000      99        0.00    0.000    0.000     250.7    250.7    0.88    85.0     371.4     102.5     102.5      65.9      65.9      21.4    0.000     0.000     0.000     0.000     0.000    0.88     0.00    0.00      0   -9.90   -9.00        0.3       11.8       11.8       11.5        9.6       10.0       11.7       11.7       11.7       11.7       11.7       11.7        0.0        0.0        0.0        0.0        0.0        0.0        0.0        0.0        0.0        0.0        0.0        0.0      0.8      15.3      18.1      26.1      34.1    391.85
    25     7  2011    25     2     249.9     4.5      1.8    0.0    4.5    0.0      0.0      0.0   -9.90     14.7      4.9     33      2.2      2.2   100     16.9     7.1      42     16.9    0.91      9      0      0      0      0     8.2     8.2      0     0.14      2.2      2.2      2.2   100    34.3     0.316    -9.9    0.000    0.000      99        0.00    0.000    0.000     249.9    249.9    0.91    86.8     381.7     105.4     105.4      68.1      68.1      22.0    0.000     0.000     0.000     0.000     0.000    0.91     0.00    0.00      0   -9.90   -9.00        9.6        9.6        9.6        9.6        9.6        9.6       11.6       11.7       11.7       11.7       11.7       11.7        0.0        0.0        0.0        0.0        0.0        0.0        0.0        0.0        0.0        0.0        0.0        0.0      4.5      15.5      19.7      27.5      35.2    391.85
    26     7  2011    26     2     249.1    10.3      0.0    0.0   10.3    0.0      0.0      0.0   -9.90     12.8      8.9     70      2.3      2.3   100     15.0    11.2      74     16.5    0.93      0      0      0      0      0     9.7     9.7      0     0.16      2.3      2.3      2.3   100    34.3     0.373    -9.9    0.000    0.000      99        0.00    0.000    0.000     249.1    249.1    0.93    88.8     392.0     108.2     108.2      66.6      66.6      22.6    0.000     0.000     0.000     0.000     0.000    0.93     0.00    0.00      0   -9.90   -9.00        8.7        9.6        9.6        9.6        9.6        9.6       11.6       11.7       11.7       11.7       11.7       11.7        0.0        0.0        0.0        0.0        0.0        0.0        0.0        0.0        0.0        0.0        0.0        0.0     10.3      13.8      19.0      25.7      32.3    391.85
    27     7  2011    27     2     249.0     3.2      7.5    0.0    3.2    0.0      0.0      0.0   -9.90     14.0      7.8     55      3.0      3.0   100     17.0    10.8      63     17.0    0.95      0      0      0      0      0    11.4    11.4      0     0.19      3.0      3.0      3.0   100    34.3     0.439    -9.9    0.000    0.000      98        0.00    0.000    0.000     249.0    249.0    0.95    92.3     402.2     111.0     111.0      72.0      72.0      23.2    0.000     0.000     0.000     0.000     0.000    0.95     0.00    0.00      0   -9.90   -9.00        9.6        9.6        9.7        9.7        9.7        9.7       11.1       11.7       11.7       11.7       11.7       11.7        0.0        0.0        0.0        0.0        0.0        0.0        0.0        0.0        0.0        0.0        0.0        0.0      3.2      15.6      20.1      27.8      35.6    391.85
    28     7  2011    28     2     250.1    14.0      0.0    0.0   13.8    0.2      0.0      0.0   -9.90     12.9      9.3     72      3.4      3.4   100     16.3    12.7      78     16.8    0.98      0      0      0      0      0    13.5    13.5      0     0.22      3.4      3.4      3.4   100    34.3     0.516    -9.9    0.000    0.000      98        0.00    0.000    0.000     250.1    250.1    0.98    96.1     412.2     113.8     113.8      72.5      72.5      23.8    0.000     0.000     0.000     0.000     0.000    0.98     0.00    0.00      0   -9.90   -9.00       11.3        9.2        9.7        9.7        9.7        9.7       11.1       11.7       11.7       11.7       11.7       11.7        0.0        0.0        0.0        0.0        0.0        0.0        0.0        0.0        0.0        0.0        0.0        0.0     14.0      15.0      19.6      27.0      34.4    391.85
    29     7  2011    29     2     247.0     7.8      1.7    0.0    7.8    0.0      0.0      0.0   -9.90     12.5      8.7     69      3.9      3.9   100     16.4    12.6      77     16.8    1.00      0      0      0      0      0    15.9    15.9      0     0.26      3.9      3.9      3.9   100    34.3     0.605    -9.9    0.000    0.000      98        0.00    0.000    0.000     247.0    247.0    1.00    96.3     422.2     116.6     116.6      74.6      74.6      24.4    0.000     0.000     0.000     0.000     0.000    1.00     0.00    0.00      0   -9.90   -9.00        9.6        9.6        9.6        9.6        9.6        9.6       10.4       11.7       11.7       11.7       11.7       11.7        0.0        0.0        0.0        0.0        0.0        0.0        0.0        0.0        0.0        0.0        0.0        0.0      7.8      15.1      19.6      27.1      34.6    391.85
    30     7  2011    30     2     245.3     2.7      6.7    0.0    2.7    0.0      0.0      0.0   -9.90     11.3      6.7     60      4.4      4.4   100     15.6    11.1      71     17.6    1.02      0      0      0      0      0    18.8    18.8      0     0.30      4.4      4.4      4.4   100    34.3     0.709    -9.9    0.000    0.000      98        0.00    0.000    0.000     245.3    245.3    1.02    97.4     432.0     119.3     119.3      74.8      74.8      25.0    0.000     0.000     0.000     0.000     0.000    1.02     0.00    0.00      0   -9.90   -9.00        9.5        9.5        9.5        9.5        9.5        9.5        9.8       11.7       11.7       11.7       11.7       11.7        0.0        0.0        0.0        0.0        0.0        0.0        0.0        0.0        0.0        0.0        0.0        0.0      2.7      14.4      21.3      27.8      34.4    391.85
    31     7  2011    31     2     245.2    10.2      3.1    0.0   10.2    0.0      0.0      0.0   -9.90     10.8      8.2     76      5.2      5.2   100     16.0    13.4      84     17.0    1.05      0      0      0      0      0    22.1    22.1      0     0.35      5.2      5.2      5.2   100    34.3     0.829    -9.9    0.000    0.000      98        0.00    0.000    0.000     245.2    245.2    1.05    99.7     441.8     122.0     122.0      77.3      77.3      25.6    0.000     0.000     0.000     0.000     0.000    1.05     0.00    0.00      0   -9.90   -9.00        9.5        9.5        9.6        9.6        9.6        9.6        9.6       11.7       11.7       11.7       11.7       11.7        0.0        0.0        0.0        0.0        0.0        0.0        0.0        0.0        0.0        0.0        0.0        0.0     10.2      14.8      20.1      27.2      34.3    391.85
     1     8  2011    32     2     245.3     1.6     10.1    0.0    1.6    0.0      0.0      0.0   -9.90     10.1      5.6     55      6.0      6.0   100     16.1    11.6      72     16.3    1.07      3      0      0      0      0    26.0    26.0      0     0.40      6.0      6.0      6.0   100    34.3     0.966    -9.9    0.000    0.000      98        0.00    0.000    0.000     245.3    245.3    1.07   102.0     451.5     124.7     124.7      79.4      79.4      26.1    0.000     0.000     0.000     0.000     0.000    1.07     0.00    0.00      0   -9.90   -9.00        9.5        9.5        9.6        9.6        9.6        9.6        9.6       11.7       11.7       11.7       11.7       11.7        0.0        0.0        0.0        0.0        0.0        0.0        0.0        0.0        0.0        0.0        0.0        0.0      1.6      14.9      18.7      26.3      33.9    391.85
     2     8  2011    33     2     244.8     4.7      8.5    0.0    4.7    0.0      0.0      0.0   -9.90      8.9      7.0     79      6.7      6.7   100     15.6    13.7      88     17.7    1.09      0      0      0      0      0    30.7    30.7      0     0.46      6.7      6.7      6.7   100    34.3     1.125    -9.9    0.000    0.000      98        0.00    0.000    0.000     244.8    244.8    1.09   103.7     461.2     127.3     127.3      80.0      80.0      26.7    0.000     0.000     0.000     0.000     0.000    1.09     0.00    0.00      0   -9.90   -9.00        9.5        9.5        9.5        9.5        9.5        9.5        9.5       11.7       11.7       11.7       11.7       11.7        0.0        0.0        0.0        0.0        0.0        0.0        0.0        0.0        0.0        0.0        0.0        0.0      4.7      14.5      21.3      27.9      34.6    391.85
     3     8  2011    34     2     244.2     8.4      5.4    0.0    8.4    0.0      0.0      0.0   -9.90      7.8      6.8     88      7.6      7.6   100     15.3    14.4      94     17.1    1.12      0      0      0      0      0    36.2    36.2      0     0.53      7.6      7.6      7.6   100    34.3     1.305    -9.9    0.000    0.000      97        0.00    0.000    0.000     244.2    244.2    1.12   105.9     470.7     130.0     130.0      81.3      81.3      27.3    0.000     0.000     0.000     0.000     0.000    1.12     0.00    0.00      0   -9.90   -9.00        9.5        9.5        9.5        9.5        9.5        9.5        9.5       11.5       11.7       11.7       11.7       11.7        0.0        0.0        0.0        0.0        0.0        0.0        0.0        0.0        0.0        0.0        0.0        0.0      8.4      14.3      20.2      27.0      33.7    391.85
     4     8  2011    35     2     242.9     0.8     10.3    0.0    0.8    0.0      0.0      0.0   -9.90      6.6      4.2     64      8.2      8.2   100     14.8    12.4      84     16.7    1.14      8      0      0      0      0    42.1    42.1      0     0.59      8.2      8.2      8.2   100    34.3     1.509    -9.9    0.000    0.000      97        0.00    0.000    0.000     242.9    242.9    1.14   107.8     480.2     132.6     132.6      81.8      81.8      27.8    0.000     0.000     0.000     0.000     0.000    1.14     0.00    0.00      0   -9.90   -9.00        9.4        9.4        9.5        9.5        9.5        9.5        9.5       11.1       11.7       11.7       11.7       11.7        0.0        0.0        0.0        0.0        0.0        0.0        0.0        0.0        0.0        0.0        0.0        0.0      0.8      13.9      19.5      26.1      32.6    391.85
     5     8  2011    36     2     243.5     2.0     13.4    0.0    2.0    0.0      0.0      0.0   -9.90      5.9      4.6     78     10.2     10.2   100     16.1    14.8      92     16.8    1.16      1      0      0      0      0    49.5    49.5      0     0.67     10.2     10.2     10.2   100    34.3     1.739    -9.9    0.000    0.000      97        0.00    0.000    0.000     243.5    243.5    1.16   111.5     489.6     135.2     135.2      86.6      86.6      28.4    0.000     0.000     0.000     0.000     0.000    1.16     0.00    0.00      0   -9.90   -9.00        9.6        9.6        9.6        9.6        9.6        9.6        9.6       10.7       11.7       11.7       11.7       11.7        0.0        0.0        0.0        0.0        0.0        0.0        0.0        0.0        0.0        0.0        0.0        0.0      2.0      15.2      19.5      27.1      34.6    391.85
     6     8  2011    37     2     240.9     3.9      7.9    0.0    3.9    0.0      0.0      0.0   -9.90      4.4      4.4     99     10.1     10.1   100     14.6    14.5     100     17.4    1.18      0      0      0      0      0    56.5    56.5      0     0.74     10.1     10.1     10.1   100    34.3     1.992    -9.9    0.000    0.000      97        0.00    0.000    0.000     240.9    240.9    1.18   111.8     499.0     137.8     137.8      84.7      84.7      28.9    0.000     0.000     0.000     0.000     0.000    1.18     0.00    0.00      0   -9.90   -9.00        9.4        9.4        9.5        9.5        9.5        9.5        9.5       10.2       11.7       11.7       11.7       11.7        0.0        0.0        0.0        0.0        0.0        0.0        0.0        0.0        0.0        0.0        0.0        0.0      3.9      13.8      20.7      26.9      33.2    391.85
     7     8  2011    38     2     243.1     0.5     17.4    0.0    0.5    0.0      0.0      0.0   -9.90      4.4      3.1     70     12.6     12.6   100     17.0    15.6      92     16.1    1.20     13      0      0      0      0    61.6    61.6      0     0.78     12.6     12.6     12.6   100    34.3     2.261    -9.9    0.000    0.000      97        0.00    0.000    0.000     243.1    243.1    1.20   116.5     508.3     140.3     140.3      92.2      92.2      29.5    0.000     0.000     0.000     0.000     0.000    1.20     0.00    0.00      0   -9.90   -9.00        9.7        9.7        9.7        9.7        9.7        9.7        9.7        9.9       11.7       11.7       11.7       11.7        0.0        0.0        0.0        0.0        0.0        0.0        0.0        0.0        0.0        0.0        0.0        0.0      0.5      16.1      18.1      26.7      35.3    391.85
     8     8  2011    39     2     242.4     6.0     10.0    0.0    6.0    0.0      0.0      0.0   -9.90      3.6      3.6    100     13.0     13.0   100     16.7    16.7     100     16.6    1.23      0      0      0      0      0    66.7    66.7      0     0.83     13.0     13.0     13.0   100    34.3     2.544    -9.9    0.000    0.000      97        0.00    0.000    0.000     242.4    242.4    1.23   118.2     517.5     142.9     142.9      93.2      93.2      30.0    0.000     0.000     0.000     0.000     0.000    1.23     0.00    0.00      0   -9.90   -9.00        9.6        9.6        9.7        9.7        9.7        9.7        9.7        9.8       11.7       11.7       11.7       11.7        0.0        0.0        0.0        0.0        0.0        0.0        0.0        0.0        0.0        0.0        0.0        0.0      6.0      15.8      19.2      27.3      35.4    391.85
     9     8  2011    40     2     240.7     1.9     11.6    0.0    1.9    0.0      0.0      0.0   -9.90      2.8      2.7     96     12.6     12.6   100     15.4    15.3      99     16.7    1.25      0      0      0      0      0    71.0    71.0      0     0.86     12.6     12.6     12.6   100    34.3     2.839    -9.9    0.000    0.000      97        0.00    0.000    0.000     240.7    240.7    1.25   118.6     526.7     145.4     145.4      91.7      91.7      30.6    0.000     0.000     0.000     0.000     0.000    1.25     0.00    0.00      0   -9.90   -9.00        9.5        9.5        9.5        9.5        9.5        9.5        9.5        9.6       11.7       11.7       11.7       11.7        0.0        0.0        0.0        0.0        0.0        0.0        0.0        0.0        0.0        0.0        0.0        0.0      1.9      14.6      19.3      26.5      33.7    391.85
    10     8  2011    41     2     239.3     1.1     11.6    0.0    1.1    0.0      0.0      0.0   -9.90      2.2      2.0     89     12.1     12.1   100     14.3    14.1      98     17.2    1.27      5      0      0      0      0    74.5    74.5      0     0.89     12.1     12.1     12.1   100    34.3     3.143    -9.9    0.000    0.000      97        0.00    0.000    0.000     239.3    239.3    1.27   119.3     535.8     147.9     147.9      90.6      90.6      31.1    0.000     0.000     0.000     0.000     0.000    1.27     0.00    0.00      0   -9.90   -9.00        9.4        9.4        9.4        9.4        9.4        9.4        9.4        9.5       11.7       11.7       11.7       11.7        0.0        0.0        0.0        0.0        0.0        0.0        0.0        0.0        0.0        0.0        0.0        0.0      1.1      13.6      20.4      26.6      32.8    391.85
    11     8  2011    42     2     241.9     3.9     15.2    0.0    3.9    0.0      0.0      0.0   -9.90      2.2      2.2    100     14.2     14.2   100     16.4    16.4     100     17.6    1.29      0      0      0      0      0    77.7    77.7      0     0.91     14.2     14.2     14.2   100    34.3     3.456    -9.9    0.000    0.000      98        0.00    0.000    0.000     241.9    241.9    1.29   124.0     544.9     150.4     150.4      97.6      97.6      31.6    0.000     0.000     0.000     0.000     0.000    1.29     0.00    0.00      0   -9.90   -9.00        9.6        9.6        9.7        9.7        9.7        9.7        9.7        9.6       11.7       11.7       11.7       11.7        0.0        0.0        0.0        0.0        0.0        0.0        0.0        0.0        0.0        0.0        0.0        0.0      3.9      15.6      21.1      28.6      36.1    391.85
    12     8  2011    43     2     239.9     7.0      5.8    0.0    7.0    0.0      0.0      0.0   -9.90      1.7      1.7    100     13.3     13.3   100     15.0    15.0     100     17.0    1.31      0      0      0      0      0    80.3    80.3      0     0.93     13.3     13.3     13.3   100    34.3     3.775    -9.9    0.000    0.000      98        0.00    0.000    0.000     239.9    239.9    1.31   124.4     553.9     152.9     152.9      95.5      95.5      32.2    0.000     0.000     0.000     0.000     0.000    1.31     0.00    0.00      0   -9.90   -9.00        9.5        9.5        9.5        9.5        9.5        9.5        9.5        9.5       11.6       11.7       11.7       11.7        0.0        0.0        0.0        0.0        0.0        0.0        0.0        0.0        0.0        0.0        0.0        0.0      7.0      14.2      20.1      26.8      33.5    391.85
    13     8  2011    44     2     240.2    14.7      1.6    0.0   14.5    0.2      0.0      0.0   -9.90      1.5      1.5    100     14.2     14.2   100     15.7    15.7     100     16.3    1.33      0      0      0      0      0    82.6    82.6      0     0.95     14.2     14.2     14.2   100    34.3     4.100    -9.9    0.000    0.000      98        0.00    0.000    0.000     240.2    240.2    1.33   127.8     562.8     155.4     155.4      99.0      99.0      32.7    0.000     0.000     0.000     0.000     0.000    1.33     0.00    0.00      0   -9.90   -9.00        9.5        9.5        9.6        9.6        9.6        9.6        9.6        9.6       11.3       11.7       11.7       11.7        0.0        0.0        0.0        0.0        0.0        0.0        0.0        0.0        0.0        0.0        0.0        0.0     14.7      15.0      18.6      26.2      33.9    391.85
    14     8  2011    45     2     238.2     3.6      9.3    0.0    3.6    0.0      0.0      0.0   -9.90      1.2      1.2    100     13.7     13.7   100     14.9    14.9     100     18.1    1.35      0      0      0      0      0    84.5    84.5      0     0.96     13.7     13.7     13.7   100    34.3     4.429    -9.9    0.000    0.000      98        0.00    0.000    0.000     238.2    238.2    1.35   128.9     571.7     157.8     157.8      98.5      98.5      33.2    0.000     0.000     0.000     0.000     0.000    1.35     0.00    0.00      0   -9.90   -9.00        9.5        9.5        9.5        9.5        9.5        9.5        9.5        9.5       10.9       11.7       11.7       11.7        0.0        0.0        0.0        0.0        0.0        0.0        0.0        0.0        0.0        0.0        0.0        0.0      3.6      14.2      22.2      28.5      34.7    391.85
    15     8  2011    46     2     236.0     4.6      7.3    0.0    4.6    0.0      0.0      0.0   -9.90      1.0      1.0    100     13.1     13.1   100     14.1    14.1     100     17.7    1.37      0      0      0      0      0    86.1    86.1      0     0.97     13.1     13.1     13.1   100    34.3     4.762    -9.9    0.000    0.000      98        0.00    0.000    0.000     236.0    236.0    1.37   129.8     580.6     160.3     160.3      97.7      97.7      33.8    0.000     0.000     0.000     0.000     0.000    1.37     0.00    0.00      0   -9.90   -9.00        9.4        9.4        9.4        9.4        9.4        9.4        9.4        9.4       10.5       11.7       11.7       11.7        0.0        0.0        0.0        0.0        0.0        0.0        0.0        0.0        0.0        0.0        0.0        0.0      4.6      13.4      21.5      27.3      33.2    391.85
    16     8  2011    47     2     237.1     8.2      8.5    0.0    8.2    0.0      0.0      0.0   -9.90      1.0      1.0    100     14.6     14.6   100     15.6    15.6     100     17.6    1.40      0      0      0      0      0    87.5    87.5      0     0.98     14.6     14.6     14.6   100    34.3     5.099    -9.9    0.000    0.000      98        0.00    0.000    0.000     237.1    237.1    1.40   133.6     589.4     162.7     162.7     103.5     103.5      34.3    0.000     0.000     0.000     0.000     0.000    1.40     0.00    0.00      0   -9.90   -9.00        9.5        9.5        9.6        9.6        9.6        9.6        9.6        9.6       10.1       11.7       11.7       11.7        0.0        0.0        0.0        0.0        0.0        0.0        0.0        0.0        0.0        0.0        0.0        0.0      8.2      14.9      21.1      28.1      35.0    391.85
    17     8  2011    48     2     234.4     4.5      7.0    0.0    4.5    0.0      0.0      0.0   -9.90      0.8      0.8    100     13.4     13.4   100     14.2    14.2     100     18.0    1.42      0      0      0      0      0    88.7    88.7      0     0.99     13.4     13.4     13.4   100    34.3     5.438    -9.9    0.000    0.000      98        0.00    0.000    0.000     234.4    234.4    1.42   133.5     598.2     165.1     165.1     100.9     100.9      34.8    0.000     0.000     0.000     0.000     0.000    1.42     0.00    0.00      0   -9.90   -9.00        9.4        9.4        9.4        9.4        9.4        9.4        9.4        9.4        9.8       11.7       11.7       11.7        0.0        0.0        0.0        0.0        0.0        0.0        0.0        0.0        0.0        0.0        0.0        0.0      4.5      13.5      22.1      27.9      33.7    391.85
    18     8  2011    49     2     236.5     2.0     16.0    0.0    2.0    0.0      0.0      0.0   -9.90      0.8      0.8    100     15.2     15.2   100     15.9    15.9     100     16.8    1.44      1      0      0      0      0    89.6    89.6      0     1.00     15.2     15.2     15.2   100    34.3     5.780    -9.9    0.000    0.000      98        0.00    0.000    0.000     236.5    236.5    1.44   137.7     606.9     167.5     167.5     107.6     107.6      35.3    0.000     0.000     0.000     0.000     0.000    1.44     0.00    0.00      0   -9.90   -9.00        9.6        9.6        9.6        9.6        9.6        9.6        9.6        9.6        9.7       11.7       11.7       11.7        0.0        0.0        0.0        0.0        0.0        0.0        0.0        0.0        0.0        0.0        0.0        0.0      2.0      15.2      19.6      27.2      34.8    391.85
    19     8  2011    50     2     235.3     4.1     10.0    0.0    4.1    0.0      0.0      0.0   -9.90      0.6      0.6    100     14.6     14.6   100     15.2    15.2     100     17.0    1.46      0      0      0      0      0    90.5    90.5      0     1.00     14.6     14.6     14.6   100    34.3     6.123    -9.9    0.000    0.000      98        0.00    0.000    0.000     235.3    235.3    1.46   138.6     615.5     169.9     169.9     107.1     107.1      35.8    0.000     0.000     0.000     0.000     0.000    1.46     0.00    0.00      0   -9.90   -9.00        9.5        9.5        9.5        9.5        9.5        9.5        9.5        9.5        9.6       11.7       11.7       11.7        0.0        0.0        0.0        0.0        0.0        0.0        0.0        0.0        0.0        0.0        0.0        0.0      4.1      14.6      20.1      27.1      34.1    391.85
    20     8  2011    51     2     237.5    18.0      0.0    0.0   17.5    0.4      0.0      0.0   -9.90      0.6      0.6    100     14.8     14.8   100     15.4    15.4     100     16.7    1.48      0      0      0      0      0    91.2    91.2      0     1.01     14.8     14.8     14.8   100    34.3     6.468    -9.9    0.000    0.000      98        0.00    0.000    0.000     237.5    237.5    1.48   142.7     624.2     172.3     172.3     109.0     109.0      36.3    0.000     0.000     0.000     0.000     0.000    1.48     0.00    0.00      0   -9.90   -9.00       23.9        6.6        6.7        7.1        9.5        9.5        9.5        9.5        9.6       11.7       11.7       11.7        0.0        0.0        0.0        0.0        0.0        0.0        0.0        0.0        0.0        0.0        0.0        0.0     18.0      14.7      19.5      26.7      34.0    391.85
    21     8  2011    52     2     238.0     8.1      9.6    0.0    8.0    0.1      0.0      0.0   -9.90      0.6      0.6    100     16.5     16.5   100     17.1    17.1     100     17.0    1.50      0      0      0      0      0    91.8    91.8      0     1.01     16.5     16.5     16.5   100    34.3     6.815    -9.9    0.000    0.000      98        0.00    0.000    0.000     238.0    238.0    1.50   145.1     632.8     174.7     174.7     115.7     115.7      36.8    0.000     0.000     0.000     0.000     0.000    1.50     0.00    0.00      0   -9.90   -9.00        9.7        9.7        9.7        9.7        9.7        9.7        9.7        9.7        9.7       11.7       11.7       11.7        0.0        0.0        0.0        0.0        0.0        0.0        0.0        0.0        0.0        0.0        0.0        0.0      8.1      16.3      20.0      28.3      36.6    391.85
    22     8  2011    53     2     235.0     3.1      9.0    0.0    3.1    0.0      0.0      0.0   -9.90      0.5      0.5    100     14.6     14.6   100     15.1    15.1     100     16.5    1.52      0      0      0      0      0    92.3    92.3      0     1.01     14.6     14.6     14.6   100    34.3     7.162    -9.9    0.000    0.000      98        0.00    0.000    0.000     235.0    235.0    1.52   144.1     641.3     177.0     177.0     111.1     111.1      37.3    0.000     0.000     0.000     0.000     0.000    1.52     0.00    0.00      0   -9.90   -9.00        9.5        9.5        9.5        9.5        9.5        9.5        9.5        9.5        9.6       11.7       11.7       11.7        0.0        0.0        0.0        0.0        0.0        0.0        0.0        0.0        0.0        0.0        0.0        0.0      3.1      14.4      19.1      26.2      33.4    391.85
    23     8  2011    54     2     235.9     1.6     15.0    0.0    1.6    0.0      0.0      0.0   -9.90      0.4      0.4    100     15.3     15.3   100     15.7    15.7     100     16.0    1.54      2      0      0      0      0    92.7    92.7      0     1.02     15.3     15.3     15.3   100    34.3     7.511    -9.9    0.000    0.000      98        0.00    0.000    0.000     235.9    235.9    1.54   147.0     649.8     179.4     179.4     114.6     114.6      37.8    0.000     0.000     0.000     0.000     0.000    1.54     0.00    0.00      0   -9.90   -9.00        9.5        9.5        9.6        9.6        9.6        9.6        9.6        9.6        9.6       11.7       11.7       11.7        0.0        0.0        0.0        0.0        0.0        0.0        0.0        0.0        0.0        0.0        0.0        0.0      1.6      15.0      18.0      25.9      33.8    391.85
    24     8  2011    55     2     234.5     3.0     10.4    0.0    3.0    0.0      0.0      0.0   -9.90      0.4      0.4    100     14.5     14.5   100     14.9    14.9     100     17.1    1.56      0      0      0      0      0    93.0    93.0      0     1.02     14.5     14.5     14.5   100    34.3     7.860    -9.9    0.000    0.000      98        0.00    0.000    0.000     234.5    234.5    1.56   147.8     658.3     181.7     181.7     113.5     113.5      38.3    0.000     0.000     0.000     0.000     0.000    1.56     0.00    0.00      0   -9.90   -9.00        9.5        9.5        9.5        9.5        9.5        9.5        9.5        9.5        9.5       11.6       11.7       11.7        0.0        0.0        0.0        0.0        0.0        0.0        0.0        0.0        0.0        0.0        0.0        0.0      3.0      14.3      20.1      26.9      33.7    391.85
    25     8  2011    56     3     234.0     5.9      8.5    0.0    5.9    0.0      0.0      0.0   -9.90      0.3      0.3    100     14.6     14.6   100     14.9    14.9     100     17.1    1.58      0      0      0      0      0    93.3    93.3      0     1.02     14.6     14.6     14.6   100    34.3     8.210    -9.9    0.000    0.000      98        0.00    0.000    0.000     234.0    234.0    1.58   150.1     666.7     184.0     184.0     115.1     115.1      38.8    0.000     0.000     0.000     0.000     0.000    1.58     0.00    0.00      0   -9.90   -9.00        9.5        9.5        9.5        9.5        9.5        9.5        9.5        9.5        9.5       11.4       11.7       11.7        0.0        0.0        0.0        0.0        0.0        0.0        0.0        0.0        0.0        0.0        0.0        0.0      5.9      14.3      20.3      27.1      33.9    391.85
    26     8  2011    57     3     232.7     2.9     10.6    0.0    2.9    0.0      0.0      0.0   -9.90      0.3      0.3    100     14.4     14.4   100     14.7    14.7     100     17.0    1.60      0      0      0      0      0    93.5    93.5      0     1.02     14.4     14.4     14.4   100    34.3     8.560    -9.9    0.000    0.000      98        0.00    0.000    0.000     232.7    232.7    1.60   151.8     675.1     186.4     186.4     115.8     115.8      39.3    0.000     0.000     0.000     0.000     0.000    1.60     0.00    0.00      0   -9.90   -9.00        9.4        9.4        9.5        9.5        9.5        9.5        9.5        9.5        9.5       11.0       11.7       11.7        0.0        0.0        0.0        0.0        0.0        0.0        0.0        0.0        0.0        0.0        0.0        0.0      2.9      14.1      20.0      26.7      33.4    391.85
    27     8  2011    58     3     233.5     6.9      9.8    0.0    6.9    0.0      0.0      0.0   -9.90      0.3      0.3    100     15.5     15.5   100     15.8    15.8     100     16.3    1.62      0      0      0      0      0    93.7    93.7      0     1.02     15.5     15.5     15.5   100    34.3     8.911     1.5    0.135    0.150      99        0.02    0.000    0.000     233.5    233.5    1.62   155.5     683.5     188.7     188.7     121.0     121.0      39.8    0.000     0.000     0.000     0.000     0.000    1.62     0.00    0.00      0   -9.90   -9.00        9.6        9.6        9.6        9.6        9.6        9.6        9.6        9.6        9.6       10.7       11.7       11.7        0.0        0.0        0.0        0.0        0.0        0.0        0.0        0.0        0.0        0.0        0.0        0.0      6.9      15.2      18.6      26.5      34.3    391.85
    28     8  2011    59     3     229.5     3.9      6.0    0.0    3.9    0.0      0.0      0.0   -9.90      0.3      0.3    100     13.7     13.7   100     14.0    14.0     100     17.7    1.64      0      0      0      0      0    93.8    93.8      0     1.02     13.7     13.7     13.7   100    34.3     9.263     1.9    0.171    0.190      99        0.02    0.000    0.000     229.5    229.5    1.64   154.3     691.8     191.0     191.0     116.2     116.2      40.3    0.000     0.000     0.000     0.000     0.000    1.64     0.00    0.00      0   -9.90   -9.00        9.4        9.4        9.4        9.4        9.4        9.4        9.4        9.4        9.4       10.2       11.7       11.7        0.0        0.0        0.0        0.0        0.0        0.0        0.0        0.0        0.0        0.0        0.0        0.0      3.9      13.4      21.3      27.2      33.1    391.85
    29     8  2011    60     3     229.6    13.4      1.3    0.0   13.3    0.1      0.0      0.0   -9.90      0.3      0.3    100     14.2     14.2   100     14.5    14.5     100     18.1    1.66      0      0      0      0      0    93.9    93.9      0     1.02     14.2     14.2     14.2   100    34.3     9.614     2.3    0.218    0.242      99        0.03    0.000    0.000     229.6    229.6    1.66   156.8     700.1     193.3     193.3     119.4     119.4      40.8    0.000     0.000     0.000     0.000     0.000    1.66     0.00    0.00      0   -9.90   -9.00        9.4        9.4        9.5        9.5        9.5        9.5        9.5        9.5        9.5        9.9       11.7       11.7        0.0        0.0        0.0        0.0        0.0        0.0        0.0        0.0        0.0        0.0        0.0        0.0     13.4      13.9      22.1      28.2      34.4    391.85
    30     8  2011    61     3     229.2     3.1     11.1    0.0    3.1    0.0      0.0      0.0   -9.90      0.3      0.3    100     14.3     14.3   100     14.6    14.6     100     17.6    1.68      0      0      0      0      0    94.0    94.0      0     1.03     14.3     14.3     14.3   100    34.3     9.965     2.8    0.275    0.306      99        0.04    0.000    0.000     229.2    229.2    1.68   158.6     708.4     195.5     195.5     121.1     121.1      41.3    0.000     0.000     0.000     0.000     0.000    1.68     0.00    0.00      0   -9.90   -9.00        9.4        9.4        9.5        9.5        9.5        9.5        9.5        9.5        9.5        9.7       11.7       11.7        0.0        0.0        0.0        0.0        0.0        0.0        0.0        0.0        0.0        0.0        0.0        0.0      3.1      14.0      21.2      27.6      34.0    391.85
    31     8  2011    62     3     231.6     2.0     16.5    0.0    2.0    0.0      0.0      0.0   -9.90      0.4      0.4    100     15.7     15.7   100     16.1    16.1     100     17.5    1.70     -9      0      0      0      0    93.4    93.4      0     1.01     15.7     15.7     15.7   100    34.3    10.313     3.4    0.347    0.385      99        0.05    0.000    0.000     231.6    231.6    1.70   163.0     716.6     197.8     197.8     128.1     128.1      41.8    0.000     0.000     0.000     0.000     0.000    1.70     0.00    0.00      0   -9.90   -9.00        9.6        9.6        9.6        9.6        9.6        9.6        9.6        9.6        9.6        9.7       11.7       11.7        0.0        0.0        0.0        0.0        0.0        0.0        0.0        0.0        0.0        0.0        0.0        0.0      2.0      15.5      21.0      28.6      36.1    391.85
     1     9  2011    63     3     230.6     5.0      9.5    0.0    5.0    0.0      0.0      0.0   -9.90      0.3      0.3    100     15.2     15.2   100     15.5    15.5     100     17.2    1.71     -9      0      0      0      0    93.5    93.5      0     1.01     15.2     15.2     15.2   100    34.3    10.659     4.1    0.435    0.483      99        0.06    0.000    0.000     230.6    230.6    1.71   163.9     724.8     200.1     200.1     127.7     127.7      42.3    0.000     0.000     0.000     0.000     0.000    1.71     0.00    0.00      0   -9.90   -9.00        9.5        9.5        9.6        9.6        9.6        9.6        9.6        9.6        9.6        9.6       11.7       11.7        0.0        0.0        0.0        0.0        0.0        0.0        0.0        0.0        0.0        0.0        0.0        0.0      5.0      15.0      20.4      27.7      35.1    391.85
     2     9  2011    64     3     229.9    14.1      0.0    0.0   14.0    0.2      0.0      0.0   -9.90      0.3      0.3    100     14.4     14.4   100     14.7    14.7     100     17.0    1.73     -9      0      0      0      0    93.6    93.6      0     1.01     14.4     14.4     14.4   100    34.3    11.005     4.9    0.543    0.604      99        0.07    0.000    0.000     229.9    229.9    1.73   165.0     732.9     202.3     202.3     126.4     126.4      42.7    0.000     0.000     0.000     0.000     0.000    1.73     0.00    0.00      0   -9.90   -9.00       20.6        6.7        6.8        7.5        9.6        9.6        9.6        9.6        9.6        9.6       11.7       11.7        0.0        0.0        0.0        0.0        0.0        0.0        0.0        0.0        0.0        0.0        0.0        0.0     14.1      14.3      20.0      26.9      33.8    391.85
     3     9  2011    65     3     229.4     1.2     13.0    0.0    1.2    0.0      0.0      0.0   -9.90      0.3      0.3    100     14.5     14.5   100     14.8    14.8     100     17.4    1.75     -9      0      0      0      0    93.6    93.6      0     1.01     14.5     14.5     14.5   100    34.3    11.351     5.9    0.675    0.750      99        0.08    0.000    0.000     229.4    229.4    1.75   166.4     741.1     204.6     204.6     128.2     128.2      43.2    0.000     0.000     0.000     0.000     0.000    1.75     0.00    0.00      0   -9.90   -9.00        9.5        9.5        9.5        9.5        9.5        9.5        9.5        9.5        9.5        9.5       11.7       11.7        0.0        0.0        0.0        0.0        0.0        0.0        0.0        0.0        0.0        0.0        0.0        0.0      1.2      14.3      20.8      27.6      34.4    391.85
     4     9  2011    66     3     230.6     0.8     15.8    0.0    0.8    0.0      0.0      0.0   -9.90      0.3      0.3    100     15.1     15.1   100     15.4    15.4     100     16.2    1.77     -9      0      0      0      0    93.7    93.7      0     1.01     15.1     15.1     15.1   100    34.3    11.696     7.1    0.834    0.927      99        0.10    0.000    0.000     230.6    230.6    1.77   169.4     749.2     206.8     206.8     132.1     132.1      43.7    0.000     0.000     0.000     0.000     0.000    1.77     0.00    0.00      0   -9.90   -9.00        9.5        9.5        9.6        9.6        9.6        9.6        9.6        9.6        9.6        9.6       11.7       11.7        0.0        0.0        0.0        0.0        0.0        0.0        0.0        0.0        0.0        0.0        0.0        0.0      0.8      15.0      18.4      26.3      34.2    391.85
     5     9  2011    67     3     230.1     8.9      5.7    0.0    8.9    0.0      0.0      0.0   -9.90      0.3      0.3    100     14.8     14.8   100     15.1    15.1     100     16.0    1.79     -9      0      0      0      0    93.7    93.7      0     1.00     14.8     14.8     14.8   100    34.3    12.040     8.5    1.024    1.138      99        0.12    0.000    0.000     230.1    230.1    1.79   170.7     757.2     209.0     209.0     132.4     132.4      44.2    0.000     0.000     0.000     0.000     0.000    1.79     0.00    0.00      0   -9.90   -9.00        9.5        9.5        9.6        9.6        9.6        9.6        9.6        9.6        9.6        9.6       11.7       11.7        0.0        0.0        0.0        0.0        0.0        0.0        0.0        0.0        0.0        0.0        0.0        0.0      8.9      14.7      18.0      25.8      33.6    391.85
     6     9  2011    68     3     227.6     2.5      8.9    0.0    2.5    0.0      0.0      0.0   -9.90      0.3      0.3    100     13.6     13.6   100     13.9    13.9     100     17.3    1.81     -9      0      0      0      0    93.8    93.8      0     1.00     13.6     13.6     13.6   100    34.3    12.384    10.0    1.242    1.380      99        0.15    0.000    0.000     227.6    227.6    1.81   170.4     765.3     211.2     211.2     129.2     129.2      44.6    0.000     0.000     0.000     0.000     0.000    1.81     0.00    0.00      0   -9.90   -9.00        9.4        9.4        9.4        9.4        9.4        9.4        9.4        9.4        9.4        9.4       11.6       11.7        0.0        0.0        0.0        0.0        0.0        0.0        0.0        0.0        0.0        0.0        0.0        0.0      2.5      13.5      20.6      26.9      33.1    391.85
     7     9  2011    69     4     228.5     5.2     10.3    0.0    5.2    0.0      0.0      0.0   -9.90      0.3      0.3    100     14.3     14.3   100     14.6    14.6     100     17.2    1.83     -9      0      0      0      0    93.8    93.8      0     1.00     14.3     14.3     14.3   100    34.3    12.727    11.6    1.471    1.634      99        0.17    0.000    0.000     228.5    228.5    1.83   174.1     773.3     213.5     213.5     133.7     133.7      45.1    0.000     0.000     0.000     0.000     0.000    1.83     0.00    0.00      0   -9.90   -9.00        9.5        9.5        9.5        9.5        9.5        9.5        9.5        9.5        9.5        9.5       11.4       11.7        0.0        0.0        0.0        0.0        0.0        0.0        0.0        0.0        0.0        0.0        0.0        0.0      5.2      14.3      20.3      27.3      34.2    391.85
     8     9  2011    70     4     231.2     4.5     14.6    0.0    4.5    0.0      0.0      0.0   -9.90      0.3      0.3    100     16.1     16.1   100     16.4    16.4     100     16.8    1.85     -9      0      0      0      0    93.8    93.8      0     1.00     16.1     16.1     16.1   100    34.3    13.069    13.1    1.710    1.900      99        0.20    0.000    0.000     231.2    231.2    1.85   179.5     781.3     215.7     215.7     142.1     142.1      45.6    0.000     0.000     0.000     0.000     0.000    1.85     0.00    0.00      0   -9.90   -9.00        9.7        9.7        9.7        9.7        9.7        9.7        9.7        9.7        9.7        9.7       11.1       11.7        0.0        0.0        0.0        0.0        0.0        0.0        0.0        0.0        0.0        0.0        0.0        0.0      4.5      16.1      19.5      28.0      36.5    391.85
     9     9  2011    71     4     225.5     5.6      2.8    0.0    5.6    0.0      0.0      0.0   -9.90      0.3      0.3    100     13.7     13.7   100     14.0    14.0     100     16.7    1.87     -9      0      0      0      0    93.9    93.9      0     1.00     13.7     13.7     13.7   100    34.3    13.410    14.6    1.959    2.177      99        0.22    0.000    0.000     225.5    225.5    1.87   176.8     789.2     217.9     217.9     134.1     134.1      46.1    0.000     0.000     0.000     0.000     0.000    1.87     0.00    0.00      0   -9.90   -9.00        9.4        9.4        9.5        9.5        9.5        9.5        9.5        9.5        9.5        9.5       10.6       11.7        0.0        0.0        0.0        0.0        0.0        0.0        0.0        0.0        0.0        0.0        0.0        0.0      5.6      13.8      19.4      26.2      32.9    391.85
    10     9  2011    72     4     225.4     5.7      8.5    0.0    5.7    0.0      0.0      0.0   -9.90      0.3      0.3    100     14.1     14.1   100     14.4    14.4     100     17.3    1.89     -9      0      0      0      0    93.9    93.9      0     0.99     14.1     14.1     14.1   100    34.3    13.751    16.1    2.218    2.465      99        0.25    0.000    0.000     225.4    225.4    1.89   179.2     797.2     220.0     220.0     137.1     137.1      46.5    0.000     0.000     0.000     0.000     0.000    1.89     0.00    0.00      0   -9.90   -9.00        9.5        9.5        9.5        9.5        9.5        9.5        9.5        9.5        9.5        9.5       10.2       11.7        0.0        0.0        0.0        0.0        0.0        0.0        0.0        0.0        0.0        0.0        0.0        0.0      5.7      14.2      20.7      27.5      34.2    391.85
    11     9  2011    73     4     222.3     7.2      2.8    0.0    7.2    0.0      0.0      0.0   -9.90      0.3      0.3    100     12.9     12.9   100     13.2    13.2     100     17.3    1.90     -9      0      0      0      0    93.9    93.9      0     0.99     12.9     12.9     12.9   100    34.3    14.091    17.7    2.488    2.765      99        0.27    0.000    0.000     222.3    222.3    1.90   178.6     805.1     222.2     222.2     133.8     133.8      47.0    0.000     0.000     0.000     0.000     0.000    1.90     0.00    0.00      0   -9.90   -9.00        9.3        9.3        9.4        9.4        9.4        9.4        9.4        9.4        9.4        9.4        9.9       11.7        0.0        0.0        0.0        0.0        0.0        0.0        0.0        0.0        0.0        0.0        0.0        0.0      7.2      13.0      20.6      26.6      32.5    391.85
    12     9  2011    74     4     223.1     6.5      8.2    0.0    6.5    0.0      0.0      0.0   -9.90      0.3      0.3    100     13.6     13.6   100     13.8    13.8     100     17.8    1.92     -9      0      0      0      0    93.9    93.9      0     0.99     13.6     13.6     13.6   100    34.3    14.429    19.2    2.768    3.076      99        0.30    0.000    0.000     223.1    223.1    1.92   181.5     813.0     224.4     224.4     138.1     138.1      47.5    0.000     0.000     0.000     0.000     0.000    1.92     0.00    0.00      0   -9.90   -9.00        9.4        9.4        9.5        9.5        9.5        9.5        9.5        9.5        9.5        9.5        9.7       11.7        0.0        0.0        0.0        0.0        0.0        0.0        0.0        0.0        0.0        0.0        0.0        0.0      6.5      13.7      21.5      27.8      34.1    391.85
    13     9  2011    75     4     223.0    13.5      0.0    0.0   13.4    0.1      0.0      0.0   -9.90      0.3      0.3    100     13.3     13.3   100     13.5    13.5     100     18.1    1.94     -9      0      0      0      0    93.9    93.9      0     0.99     13.3     13.3     13.3   100    34.3    14.767    20.7    3.058    3.398      99        0.32    0.000    0.000     223.0    223.0    1.94   183.1     820.8     226.6     226.6     138.3     138.3      47.9    0.000     0.000     0.000     0.000     0.000    1.94     0.00    0.00      0   -9.90   -9.00       19.9        6.6        6.7        8.1        9.5        9.5        9.5        9.5        9.5        9.5        9.7       11.7        0.0        0.0        0.0        0.0        0.0        0.0        0.0        0.0        0.0        0.0        0.0        0.0     13.5      13.5      22.3      28.3      34.2    391.85
    14     9  2011    76     4     224.5     0.6     15.5    0.0    0.6    0.0      0.0      0.0   -9.90      0.3      0.3    100     14.2     14.2   100     14.5    14.5     100     16.5    1.96     -9      0     -9      0      0    93.4    93.4      0     0.97     14.2     14.2     14.2   100    34.3    15.101    22.2    3.358    3.731      99        0.35    0.000    0.000     224.5    224.5    1.96   186.6     828.6     228.7     228.7     144.2     144.2      48.4    0.000     0.000     0.000     0.000     0.000    1.96     0.00    0.00      0   -9.90   -9.00        9.5        9.5        9.5        9.5        9.5        9.5        9.5        9.5        9.5        9.5        9.6       11.7        0.0        0.0        0.0        0.0        0.0        0.0        0.0        0.0        0.0        0.0        0.0        0.0      0.6      14.6      19.0      26.5      34.1    391.85
    15     9  2011    77     4     222.8     3.9      8.1    0.0    3.9    0.0      0.0      0.0   -9.90      0.4      0.4    100     13.3     13.3   100     13.7    13.7     100     17.8    1.98     -9      0     -9      0      0    92.7    92.7      0     0.96     13.3     13.3     13.3   100    34.3    15.430    23.8    3.667    4.074      99        0.38    0.000    0.000     222.8    222.8    1.98   186.7     836.4     230.9     230.9     142.4     142.4      48.8    0.000     0.000     0.000     0.000     0.000    1.98     0.00    0.00      0   -9.90   -9.00        9.4        9.4        9.5        9.5        9.5        9.5        9.5        9.5        9.5        9.5        9.5       11.7        0.0        0.0        0.0        0.0        0.0        0.0        0.0        0.0        0.0        0.0        0.0        0.0      3.9      13.8      21.6      28.0      34.4    391.85
    16     9  2011    78     4     223.3    11.1      3.1    0.0   11.0    0.0      0.0      0.0   -9.90      0.5      0.5    100     13.3     13.3   100     13.7    13.7     100     17.3    2.00     -9      0     -9      0      0    92.0    92.0      0     0.94     13.3     13.3     13.3   100    34.3    15.754    25.3    3.984    4.427      99        0.40    0.000    0.000     223.3    223.3    2.00   188.9     844.2     233.0     233.0     144.8     144.8      49.3    0.000     0.000     0.000     0.000     0.000    2.00     0.00    0.00      0   -9.90   -9.00        9.4        9.4        9.5        9.5        9.5        9.5        9.5        9.5        9.5        9.5        9.5       11.7        0.0        0.0        0.0        0.0        0.0        0.0        0.0        0.0        0.0        0.0        0.0        0.0     11.1      14.1      20.6      27.4      34.2    391.85
    17     9  2011    79     4     225.8     6.8     10.4    0.0    6.8    0.0      0.0      0.0   -9.90      0.6      0.6    100     14.1     14.1   100     14.7    14.7     100     16.6    2.01     -9      0     -9      0      0    91.1    91.1      0     0.93     14.1     14.1     14.1   100    34.3    16.072    26.8    4.310    4.788      99        0.43    0.000    0.000     225.8    225.8    2.01   193.1     852.0     235.2     235.2     151.1     151.1      49.8    0.000     0.000     0.000     0.000     0.000    2.01     0.00    0.00      0   -9.90   -9.00        9.6        9.6        9.6        9.6        9.6        9.6        9.6        9.6        9.6        9.6        9.6       11.7        0.0        0.0        0.0        0.0        0.0        0.0        0.0        0.0        0.0        0.0        0.0        0.0      6.8      15.2      19.1      27.2      35.3    391.85
    18     9  2011    80     4     221.4     5.6      2.5    0.0    5.6    0.0      0.0      0.0   -9.90      0.6      0.6    100     12.0     12.0   100     12.6    12.6     100     17.6    2.03     -9      0     -9      0      0    90.1    90.1      0     0.91     12.0     12.0     12.0   100    34.3    16.384    28.3    4.643    5.159      99        0.46    0.000    0.000     221.4    221.4    2.03   190.5     859.7     237.3     237.3     143.6     143.6      50.2    0.000     0.000     0.000     0.000     0.000    2.03     0.00    0.00      0   -9.90   -9.00        9.3        9.3        9.4        9.4        9.4        9.4        9.4        9.4        9.4        9.4        9.4       11.7        0.0        0.0        0.0        0.0        0.0        0.0        0.0        0.0        0.0        0.0        0.0        0.0      5.6      13.2      21.1      27.2      33.3    391.85
    19     9  2011    81     4     222.5    10.3      3.8    0.0   10.3    0.0      0.0      0.0   -9.90      0.7      0.7    100     12.2     12.2   100     12.9    12.9     100     16.7    2.05     -9      0     -9      0      0    89.0    89.0      0     0.89     12.2     12.2     12.2   100    34.3    16.689    29.9    4.984    5.538      99        0.49    0.000    0.000     222.5    222.5    2.05   193.3     867.4     239.4     239.4     147.2     147.2      50.7    0.000     0.000     0.000     0.000     0.000    2.05     0.00    0.00      0   -9.90   -9.00        9.4        9.4        9.5        9.5        9.5        9.5        9.5        9.5        9.5        9.5        9.5       11.7        0.0        0.0        0.0        0.0        0.0        0.0        0.0        0.0        0.0        0.0        0.0        0.0     10.3      13.7      19.3      26.2      33.1    391.85
    20     9  2011    82     4     223.7    14.6      0.0    0.0   14.4    0.2      0.0      0.0   -9.90      0.8      0.8    100     12.3     12.3   100     13.1    13.1     100     16.1    2.07     -9      0     -9      0      0    87.8    87.8      0     0.87     12.3     12.3     12.3   100    34.3    16.986    31.4    5.332    5.925      99        0.51    0.000    0.000     223.7    223.7    2.07   196.7     875.1     241.5     241.5     150.7     150.7      51.1    0.000     0.000     0.000     0.000     0.000    2.07     0.00    0.00      0   -9.90   -9.00       20.3        6.6        6.7        8.7        9.5        9.5        9.5        9.5        9.5        9.5        9.5       11.7        0.0        0.0        0.0        0.0        0.0        0.0        0.0        0.0        0.0        0.0        0.0        0.0     14.6      14.2      18.2      25.8      33.4    391.85
    21     9  2011    83     4     223.3    12.5      0.0    0.0   12.1    0.4      0.0      0.0   -9.90      0.9      0.9    100     11.6     11.6   100     12.5    12.5     100     16.9    2.09     -9      0     -9      0      0    86.4    86.4      0     0.84     11.6     11.6     11.6   100    34.3    17.275    32.9    5.687    6.319      99        0.54    0.000    0.000     223.3    223.3    2.09   198.4     882.8     243.7     243.7     149.9     149.9      51.6    0.000     0.000     0.000     0.000     0.000    2.09     0.00    0.00      0   -9.90   -9.00       21.1        8.8        3.9        8.5        9.5        9.5        9.5        9.5        9.5        9.5        9.5       11.7        0.0        0.0        0.0        0.0        0.0        0.0        0.0        0.0        0.0        0.0        0.0        0.0     12.5      13.7      19.8      26.6      33.5    391.85
    22     9  2011    84     4     218.8     4.2      2.6    0.0    4.2    0.0      0.0      0.0   -9.90      1.0      1.0    100     10.3     10.3   100     11.3    11.3     100     16.9    2.10     -9      0     -9      0      0    84.9    84.9      0     0.82     10.3     10.3     10.3   100    34.3    17.555    34.4    6.047    6.718      99        0.57    0.000    0.000     218.8    218.8    2.10   197.0     890.4     245.8     245.8     146.3     146.3      52.0    0.000     0.000     0.000     0.000     0.000    2.10     0.00    0.00      0   -9.90   -9.00        9.3        9.3        9.3        9.3        9.3        9.3        9.3        9.3        9.3        9.3        9.3       11.2        0.0        0.0        0.0        0.0        0.0        0.0        0.0        0.0        0.0        0.0        0.0        0.0      4.2      12.6      19.8      25.8      31.9    391.85
    23     9  2011    85     4     216.5     6.3      2.0    0.0    6.3    0.0      0.0      0.0   -9.90      1.1      1.1    100      9.6      9.6   100     10.7    10.7     100     17.7    2.12     -9      0     -9      0      0    83.1    83.1      0     0.79      9.6      9.6      9.6   100    34.3    17.825    36.0    6.412    7.124      99        0.60    0.000    0.000     216.5    216.5    2.12   197.7     898.0     247.9     247.9     145.6     145.6      52.5    0.000     0.000     0.000     0.000     0.000    2.12     0.00    0.00      0   -9.90   -9.00        9.2        9.2        9.3        9.3        9.3        9.3        9.3        9.3        9.3        9.3        9.3       10.6        0.0        0.0        0.0        0.0        0.0        0.0        0.0        0.0        0.0        0.0        0.0        0.0      6.3      12.2      21.4      26.8      32.2    391.85
    24     9  2011    86     4     220.2     0.8     15.1    0.0    0.8    0.0      0.0      0.0   -9.90      1.4      1.3     95     10.8     10.8   100     12.2    12.2      99     16.9    2.14     -9      0     -9      0      0    81.1    81.1      0     0.75     10.8     10.8     10.8   100    34.3    18.084    37.5    6.780    7.534      99        0.63    0.000    0.000     220.2    220.2    2.14   204.0     905.6     250.0     250.0     156.7     156.7      52.9    0.000     0.000     0.000     0.000     0.000    2.14     0.00    0.00      0   -9.90   -9.00        9.5        9.5        9.5        9.5        9.5        9.5        9.5        9.5        9.5        9.5        9.5       10.2        0.0        0.0        0.0        0.0        0.0        0.0        0.0        0.0        0.0        0.0        0.0        0.0      0.8      14.4      19.8      27.2      34.6    391.85
    25     9  2011    87     4     215.9     4.2      2.1    0.0    4.2    0.0      0.0      0.0   -9.90      1.4      1.4    100      9.2      9.2   100     10.6    10.6     100     17.9    2.16     -9      0     -9      0      0    78.9    78.9      0     0.72      9.2      9.2      9.2   100    34.3    18.330    39.0    7.153    7.947      99        0.65    0.000    0.000     215.9    215.9    2.16   202.0     913.2     252.1     252.1     150.9     150.9      53.4    0.000     0.000     0.000     0.000     0.000    2.16     0.00    0.00      0   -9.90   -9.00        9.3        9.3        9.4        9.4        9.4        9.4        9.4        9.4        9.4        9.4        9.4        9.8        0.0        0.0        0.0        0.0        0.0        0.0        0.0        0.0        0.0        0.0        0.0        0.0      4.2      12.8      21.9      27.7      33.5    391.85
[...]
    10    12  2015    -9     0     206.2     6.3      0.0    0.0    6.3    0.0      0.0      0.0   -9.90     12.9      4.7     36      0.0      0.0   100     12.9     4.7      36     17.2    2.28     -9     -9     -9      0     -9     0.0     0.0      0    -9.00      0.0      0.0      0.0   100    34.5    19.955    48.2    9.613   10.682      99        0.82    0.000    0.000     206.2    206.2    2.28   204.5     965.7     266.5     266.5     154.5     159.3      56.5    0.000     0.000     0.000     0.000     0.000    2.28     0.00    0.00      0   -9.90   -9.00        2.7        7.0        9.4        9.4        9.4        9.4        9.4        9.4        9.4        9.4        9.4        9.4        0.0        0.0        0.0        0.0        0.0        0.0        0.0        0.0        0.0        0.0        0.0        0.0      6.3      11.8      20.4      27.6      34.8    401.01
    11    12  2015    -9     0     205.4     2.4      0.0    0.0    2.4    0.0      0.0      0.0   -9.90     13.4      3.1     23      0.0      0.0   100     13.4     3.1      23     16.6    2.28     -9     -9     -9      0     -9     0.0     0.0      0    -9.00      0.0      0.0      0.0   100    34.5    19.955    48.2    9.613   10.682      99        0.82    0.000    0.000     205.4    205.4    2.28   203.8     965.7     266.5     266.5     156.4     159.3      56.5    0.000     0.000     0.000     0.000     0.000    2.28     0.00    0.00      0   -9.90   -9.00        2.0        7.0        9.4        9.4        9.4        9.4        9.4        9.4        9.4        9.4        9.4        9.4        0.0        0.0        0.0        0.0        0.0        0.0        0.0        0.0        0.0        0.0        0.0        0.0      2.4      12.2      19.3      27.1      35.0    401.01
    12    12  2015    -9     0     207.6     7.5      0.0    0.0    7.5    0.0      0.0      0.0   -9.90     12.2      5.4     44      0.0      0.0   100     12.2     5.4      44     17.6    2.28     -9     -9     -9      0     -9     0.0     0.0      0    -9.00      0.0      0.0      0.0   100    34.5    19.955    48.2    9.613   10.682      99        0.82    0.000    0.000     207.6    207.6    2.28   206.0     965.7     266.5     266.5     151.1     159.3      56.5    0.000     0.000     0.000     0.000     0.000    2.28     0.00    0.00      0   -9.90   -9.00        4.2        7.0        9.4        9.4        9.4        9.4        9.4        9.4        9.4        9.4        9.4        9.4        0.0        0.0        0.0        0.0        0.0        0.0        0.0        0.0        0.0        0.0        0.0        0.0      7.5      11.1      21.2      27.6      33.9    401.01
    13    12  2015    -9     0     206.8     4.2      0.0    0.0    4.2    0.0      0.0      0.0   -9.90     12.7      5.0     39      0.0      0.0   100     12.7     5.0      39     16.9    2.28     -9     -9     -9      0     -9     0.0     0.0      0    -9.00      0.0      0.0      0.0   100    34.5    19.955    48.2    9.613   10.682      99        0.82    0.000    0.000     206.8    206.8    2.28   205.2     965.7     266.5     266.5     153.6     159.3      56.5    0.000     0.000     0.000     0.000     0.000    2.28     0.00    0.00      0   -9.90   -9.00        3.4        7.0        9.4        9.4        9.4        9.4        9.4        9.4        9.4        9.4        9.4        9.4        0.0        0.0        0.0        0.0        0.0        0.0        0.0        0.0        0.0        0.0        0.0        0.0      4.2      11.6      19.8      27.0      34.1    401.01
    14    12  2015    -9     0     206.0     2.1      0.0    0.0    2.1    0.0      0.0      0.0   -9.90     13.1      3.0     23      0.0      0.0   100     13.1     3.0      23     16.9    2.28     -9     -9     -9      0     -9     0.0     0.0      0    -9.00      0.0      0.0      0.0   100    34.5    19.955    48.2    9.613   10.682      99        0.82    0.000    0.000     206.0    206.0    2.28   204.3     965.7     266.5     266.5     155.3     159.3      56.5    0.000     0.000     0.000     0.000     0.000    2.28     0.00    0.00      0   -9.90   -9.00        2.6        7.0        9.4        9.4        9.4        9.4        9.4        9.4        9.4        9.4        9.4        9.4        0.0        0.0        0.0        0.0        0.0        0.0        0.0        0.0        0.0        0.0        0.0        0.0      2.1      11.9      19.7      27.3      34.8    401.01
    15    12  2015    -9     0     205.5     3.7      0.0    0.0    3.7    0.0      0.0      0.0   -9.90     11.9      4.2     36      0.0      0.0   100     11.9     4.2      36     16.3    2.28     -9     -9     -9      0     -9     0.0     0.0      0    -9.00      0.0      0.0      0.0   100    34.5    19.955    48.2    9.613   10.682      99        0.82    0.000    0.000     205.5    205.5    2.28   203.8     965.7     266.5     266.5     149.8     159.3      56.5    0.000     0.000     0.000     0.000     0.000    2.28     0.00    0.00      0   -9.90   -9.00        2.0        7.0        9.4        9.4        9.4        9.4        9.4        9.4        9.4        9.4        9.4        9.4        0.0        0.0        0.0        0.0        0.0        0.0        0.0        0.0        0.0        0.0        0.0        0.0      3.7      10.8      18.7      25.4      32.1    401.01
    16    12  2015    -9     0     204.9     2.3      0.0    0.0    2.3    0.0      0.0      0.0   -9.90     13.5      2.9     22      0.0      0.0   100     13.5     2.9      22     16.1    2.28     -9     -9     -9      0     -9     0.0     0.0      0    -9.00      0.0      0.0      0.0   100    34.5    19.955    48.2    9.613   10.682      99        0.82    0.000    0.000     204.9    204.9    2.28   203.2     965.7     266.5     266.5     156.9     159.3      56.5    0.000     0.000     0.000     0.000     0.000    2.28     0.00    0.00      0   -9.90   -9.00        1.4        7.0        9.4        9.4        9.4        9.4        9.4        9.4        9.4        9.4        9.4        9.4        0.0        0.0        0.0        0.0        0.0        0.0        0.0        0.0        0.0        0.0        0.0        0.0      2.3      12.3      18.2      26.4      34.7    401.01
    17    12  2015    -9     0     207.0     7.3      0.0    0.0    7.3    0.0      0.0      0.0   -9.90     13.1      5.1     39      0.0      0.0   100     13.1     5.1      39     17.4    2.28     -9     -9     -9      0     -9     0.0     0.0      0    -9.00      0.0      0.0      0.0   100    34.5    19.955    48.2    9.613   10.682      99        0.82    0.000    0.000     207.0    207.0    2.28   205.4     965.7     266.5     266.5     155.1     159.3      56.5    0.000     0.000     0.000     0.000     0.000    2.28     0.00    0.00      0   -9.90   -9.00        3.6        7.0        9.4        9.4        9.4        9.4        9.4        9.4        9.4        9.4        9.4        9.4        0.0        0.0        0.0        0.0        0.0        0.0        0.0        0.0        0.0        0.0        0.0        0.0      7.3      11.9      20.9      28.1      35.3    401.01
    18    12  2015    -9     0     206.5     4.3      0.0    0.0    4.3    0.0      0.0      0.0   -9.90     12.9      4.8     38      0.0      0.0   100     12.9     4.8      38     16.3    2.28     -9     -9     -9      0     -9     0.0     0.0      0    -9.00      0.0      0.0      0.0   100    34.5    19.955    48.2    9.613   10.682      99        0.82    0.000    0.000     206.5    206.5    2.28   204.9     965.7     266.5     266.5     154.2     159.3      56.5    0.000     0.000     0.000     0.000     0.000    2.28     0.00    0.00      0   -9.90   -9.00        3.1        7.0        9.4        9.4        9.4        9.4        9.4        9.4        9.4        9.4        9.4        9.4        0.0        0.0        0.0        0.0        0.0        0.0        0.0        0.0        0.0        0.0        0.0        0.0      4.3      11.7      18.7      26.3      33.8    401.01
    19    12  2015    -9     0     205.7     2.3      0.0    0.0    2.3    0.0      0.0      0.0   -9.90     13.2      3.1     24      0.0      0.0   100     13.2     3.1      24     16.7    2.28     -9     -9     -9      0     -9     0.0     0.0      0    -9.00      0.0      0.0      0.0   100    34.5    19.955    48.2    9.613   10.682      99        0.82    0.000    0.000     205.7    205.7    2.28   204.1     965.7     266.5     266.5     155.5     159.3      56.5    0.000     0.000     0.000     0.000     0.000    2.28     0.00    0.00      0   -9.90   -9.00        2.3        7.0        9.4        9.4        9.4        9.4        9.4        9.4        9.4        9.4        9.4        9.4        0.0        0.0        0.0        0.0        0.0        0.0        0.0        0.0        0.0        0.0        0.0        0.0      2.3      12.0      19.5      27.1      34.7    401.01
    20    12  2015    -9     0     205.2     1.6      0.0    0.0    1.6    0.0      0.0      0.0   -9.90     11.4      2.2     19      0.0      0.0   100     11.4     2.2      19     17.5    2.28     -9     -9     -9      0     -9     0.0     0.0      0    -9.00      0.0      0.0      0.0   100    34.5    19.955    48.2    9.613   10.682      99        0.82    0.000    0.000     205.2    205.2    2.28   203.5     965.7     266.5     266.5     147.7     159.3      56.5    0.000     0.000     0.000     0.000     0.000    2.28     0.00    0.00      0   -9.90   -9.00        1.7        7.0        9.4        9.4        9.4        9.4        9.4        9.4        9.4        9.4        9.4        9.4        0.0        0.0        0.0        0.0        0.0        0.0        0.0        0.0        0.0        0.0        0.0        0.0      1.6      10.4      20.9      26.7      32.6    401.01
    21    12  2015    -9     0     204.6     1.3      0.0    0.0    1.3    0.0      0.0      0.0   -9.90     11.3      1.8     16      0.0      0.0   100     11.3     1.8      16     17.8    2.28     -9     -9     -9      0     -9     0.0     0.0      0    -9.00      0.0      0.0      0.0   100    34.5    19.955    48.2    9.613   10.682      99        0.82    0.000    0.000     204.6    204.6    2.28   203.0     965.7     266.5     266.5     147.1     159.3      56.5    0.000     0.000     0.000     0.000     0.000    2.28     0.00    0.00      0   -9.90   -9.00        1.2        7.0        9.4        9.4        9.4        9.4        9.4        9.4        9.4        9.4        9.4        9.4        0.0        0.0        0.0        0.0        0.0        0.0        0.0        0.0        0.0        0.0        0.0        0.0      1.3      10.2      21.6      27.2      32.7    401.01
    22    12  2015    -9     0     205.0     4.8      0.0    0.0    4.8    0.0      0.0      0.0   -9.90     12.4      4.5     36      0.0      0.0   100     12.4     4.5      36     16.0    2.28     -9     -9     -9      0     -9     0.0     0.0      0    -9.00      0.0      0.0      0.0   100    34.5    19.955    48.2    9.613   10.682      99        0.82    0.000    0.000     205.0    205.0    2.28   203.3     965.7     266.5     266.5     151.9     159.3      56.5    0.000     0.000     0.000     0.000     0.000    2.28     0.00    0.00      0   -9.90   -9.00        1.5        7.0        9.4        9.4        9.4        9.4        9.4        9.4        9.4        9.4        9.4        9.4        0.0        0.0        0.0        0.0        0.0        0.0        0.0        0.0        0.0        0.0        0.0        0.0      4.8      11.2      17.9      25.2      32.5    401.01
    23    12  2015    -9     0     204.8     4.3      0.0    0.0    4.3    0.0      0.0      0.0   -9.90     13.0      4.5     35      0.0      0.0   100     13.0     4.5      35     17.1    2.28     -9     -9     -9      0     -9     0.0     0.0      0    -9.00      0.0      0.0      0.0   100    34.5    19.955    48.2    9.613   10.682      99        0.82    0.000    0.000     204.8    204.8    2.28   203.2     965.7     266.5     266.5     154.7     159.3      56.5    0.000     0.000     0.000     0.000     0.000    2.28     0.00    0.00      0   -9.90   -9.00        1.4        7.0        9.4        9.4        9.4        9.4        9.4        9.4        9.4        9.4        9.4        9.4        0.0        0.0        0.0        0.0        0.0        0.0        0.0        0.0        0.0        0.0        0.0        0.0      4.3      11.8      20.2      27.5      34.8    401.01
    24    12  2015    -9     0     208.4     9.6      0.0    0.0    9.6    0.0      0.0      0.0   -9.90     12.1      6.0     50      0.0      0.0   100     12.1     6.0      50     16.9    2.28     -9     -9     -9      0     -9     0.0     0.0      0    -9.00      0.0      0.0      0.0   100    34.5    19.955    48.2    9.613   10.682      99        0.82    0.000    0.000     208.4    208.4    2.28   206.8     965.7     266.5     266.5     150.8     159.3      56.5    0.000     0.000     0.000     0.000     0.000    2.28     0.00    0.00      0   -9.90   -9.00        5.0        7.0        9.4        9.4        9.4        9.4        9.4        9.4        9.4        9.4        9.4        9.4        0.0        0.0        0.0        0.0        0.0        0.0        0.0        0.0        0.0        0.0        0.0        0.0      9.6      11.0      19.8      26.4      33.0    401.01
    25    12  2015    -9     0     207.0     1.8      0.0    0.0    1.8    0.0      0.0      0.0   -9.90     12.7      3.2     25      0.0      0.0   100     12.7     3.2      25     16.6    2.28     -9     -9     -9      0     -9     0.0     0.0      0    -9.00      0.0      0.0      0.0   100    34.5    19.955    48.2    9.613   10.682      99        0.82    0.000    0.000     207.0    207.0    2.28   205.3     965.7     266.5     266.5     153.2     159.3      56.5    0.000     0.000     0.000     0.000     0.000    2.28     0.00    0.00      0   -9.90   -9.00        3.6        7.0        9.4        9.4        9.4        9.4        9.4        9.4        9.4        9.4        9.4        9.4        0.0        0.0        0.0        0.0        0.0        0.0        0.0        0.0        0.0        0.0        0.0        0.0      1.8      11.5      19.1      26.4      33.6    401.01
    26    12  2015    -9     0     212.8    14.2      0.0    0.0   14.2    0.0      0.0      0.0   -9.90     12.3      8.5     69      0.0      0.0   100     12.3     8.5      69     17.5    2.28     -9     -9     -9      0     -9     0.0     0.0      0    -9.00      0.0      0.0      0.0   100    34.5    19.955    48.2    9.613   10.682      99        0.82    0.000    0.000     212.8    212.8    2.28   211.1     965.7     266.5     266.5     151.4     159.3      56.5    0.000     0.000     0.000     0.000     0.000    2.28     0.00    0.00      0   -9.90   -9.00        9.5        7.0        9.4        9.4        9.4        9.4        9.4        9.4        9.4        9.4        9.4        9.4        0.0        0.0        0.0        0.0        0.0        0.0        0.0        0.0        0.0        0.0        0.0        0.0     14.2      11.1      21.0      27.5      33.9    401.01
    27    12  2015    -9     0     226.0    23.3      0.0    0.0   22.5    0.8      0.0      0.0   -9.90     11.8      9.2     79      0.0      0.0   100     11.8     9.2      79     17.1    2.28     -9     -9     -9      0     -9     0.0     0.0      0    -9.00      0.0      0.0      0.0   100    34.5    19.955    48.2    9.613   10.682      99        0.82    0.000    0.000     226.0    226.0    2.28   224.3     965.7     266.5     266.5     149.3     159.3      56.5    0.000     0.000     0.000     0.000     0.000    2.28     0.00    0.00      0   -9.90   -9.00       22.9        7.0        9.4        9.4        9.4        9.4        9.4        9.4        9.4        9.4        9.4        9.4        0.0        0.0        0.0        0.0        0.0        0.0        0.0        0.0        0.0        0.0        0.0        0.0     23.3      10.7      20.2      26.5      32.7    401.01
    28    12  2015    -9     0     220.5     2.5      0.0    0.0    2.5    0.0      0.0      0.0   -9.90     13.6      8.0     59      0.0      0.0   100     13.6     8.0      59     16.6    2.28     -9     -9     -9      0     -9     0.0     0.0      0    -9.00      0.0      0.0      0.0   100    34.5    19.955    48.2    9.613   10.682      99        0.82    0.000    0.000     220.5    220.5    2.28   218.8     965.7     266.5     266.5     157.4     159.3      56.5    0.000     0.000     0.000     0.000     0.000    2.28     0.00    0.00      0   -9.90   -9.00        6.5       12.2       11.4        9.4        9.4        9.4        9.4        9.4        9.4        9.4        9.4        9.4        0.0        0.0        0.0        0.0        0.0        0.0        0.0        0.0        0.0        0.0        0.0        0.0      2.5      12.4      19.2      27.2      35.2    401.01
    29    12  2015    -9     0     216.9     2.8      0.0    0.0    2.8    0.0      0.0      0.0   -9.90     13.4      6.4     48      0.0      0.0   100     13.4     6.4      48     16.7    2.28     -9     -9     -9      0     -9     0.0     0.0      0    -9.00      0.0      0.0      0.0   100    34.5    19.955    48.2    9.613   10.682      99        0.82    0.000    0.000     216.9    216.9    2.28   215.2     965.7     266.5     266.5     156.7     159.3      56.5    0.000     0.000     0.000     0.000     0.000    2.28     0.00    0.00      0   -9.90   -9.00        2.8       11.8       11.7        9.5        9.4        9.4        9.4        9.4        9.4        9.4        9.4        9.4        0.0        0.0        0.0        0.0        0.0        0.0        0.0        0.0        0.0        0.0        0.0        0.0      2.8      12.2      19.4      27.2      35.0    401.01
    30    12  2015    -9     0     215.5     3.2      0.0    0.0    3.2    0.0      0.0      0.0   -9.90     13.1      4.5     34      0.0      0.0   100     13.1     4.5      34     16.9    2.28     -9     -9     -9      0     -9     0.0     0.0      0    -9.00      0.0      0.0      0.0   100    34.5    19.955    48.2    9.613   10.682      99        0.82    0.000    0.000     215.5    215.5    2.28   213.8     965.7     266.5     266.5     155.4     159.3      56.5    0.000     0.000     0.000     0.000     0.000    2.28     0.00    0.00      0   -9.90   -9.00        1.4       11.7       11.7        9.6        9.4        9.4        9.4        9.4        9.4        9.4        9.4        9.4        0.0        0.0        0.0        0.0        0.0        0.0        0.0        0.0        0.0        0.0        0.0        0.0      3.2      11.9      19.7      27.2      34.7    401.01
    31    12  2015    -9     0     214.6     3.5      0.0    0.0    3.5    0.0      0.0      0.0   -9.90     13.4      4.5     33      0.0      0.0   100     13.4     4.5      33     17.1    2.28     -9     -9     -9      0     -9     0.0     0.0      0    -9.00      0.0      0.0      0.0   100    34.5    19.955    48.2    9.613   10.682      99        0.82    0.000    0.000     214.6    214.6    2.28   212.9     965.7     266.5     266.5     156.6     159.3      56.5    0.000     0.000     0.000     0.000     0.000    2.28     0.00    0.00      0   -9.90   -9.00        1.2       11.3       11.7        9.6        9.4        9.4        9.4        9.4        9.4        9.4        9.4        9.4        0.0        0.0        0.0        0.0        0.0        0.0        0.0        0.0        0.0        0.0        0.0        0.0      3.5      12.2      20.2      27.8      35.3    401.01
