AquaCrop 7.1 (August 2023) - Output created on (date) : 16-01-2026   at (time) : 12:17:21
Biomass and Yield at Multiple cuttings

   Run:   1
    Nr   Day  Month Year   DAP Interval  Biomass    Sum(B)   Dry-Yield  Sum(Y) Fresh-Yield  Sum(Y)
                                 days     ton/ha    ton/ha    ton/ha    ton/ha    ton/ha    ton/ha
     0     1     7  2011                             0.000               0.000               0.000
  9999     1     1  2012                            19.882               9.578              10.642

   Run:   2
    Nr   Day  Month Year   DAP Interval  Biomass    Sum(B)   Dry-Yield  Sum(Y) Fresh-Yield  Sum(Y)
                                 days     ton/ha    ton/ha    ton/ha    ton/ha    ton/ha    ton/ha
     0     1     7  2012                             0.000               0.000               0.000
  9999     1     1  2013                            19.865               9.570              10.634

   Run:   3
    Nr   Day  Month Year   DAP Interval  Biomass    Sum(B)   Dry-Yield  Sum(Y) Fresh-Yield  Sum(Y)
                                 days     ton/ha    ton/ha    ton/ha    ton/ha    ton/ha    ton/ha
     0     1     7  2013                             0.000               0.000               0.000
  9999     1     1  2014                            19.916               9.595              10.661

   Run:   4
    Nr   Day  Month Year   DAP Interval  Biomass    Sum(B)   Dry-Yield  Sum(Y) Fresh-Yield  Sum(Y)
                                 days     ton/ha    ton/ha    ton/ha    ton/ha    ton/ha    ton/ha
     0     1     7  2014                             0.000               0.000               0.000
  9999     1     1  2015                            19.959               9.616              10.684

   Run:   5
    Nr   Day  Month Year   DAP Interval  Biomass    Sum(B)   Dry-Yield  Sum(Y) Fresh-Yield  Sum(Y)
                                 days     ton/ha    ton/ha    ton/ha    ton/ha    ton/ha    ton/ha
     0     1     7  2015                             0.000               0.000               0.000
  9999     1     1  2016                            19.786               9.532              10.591
