AquaCrop 7.1 (August 2023) - Output created on (date) : 16-01-2026   at (time) : 12:17:21

   Run:   1
   Day Month  Year   DAP Stage   WC(2.30)   Rain     Irri   Surf   Infilt   RO    Drain       CR    Zgwt       Ex       E     E/Ex     Trx       Tr  Tr/Trx    ETx      ET  ET/ETx      GD       Z     StExp  StSto  StSen StSalt StWeed   CC      CCw     StTr  Kc(Tr)     Trx       Tr      TrW  Tr/Trx   WP    Biomass     HI    Y(dry)  Y(fresh)  Brelative    WPet      Bin     Bout  WC(2.30) Wr(2.30)     Z       Wr    Wr(SAT)    Wr(FC)   Wr(exp)   Wr(sto)   Wr(sen)   Wr(PWP)    SaltIn    SaltOut   SaltUp   Salt(2.30)  SaltZ     Z       ECe    ECsw   StSalt  Zgwt    ECgw       WC01       WC 2       WC 3       WC 4       WC 5       WC 6       WC 7       WC 8       WC 9       WC10       WC11       WC12      ECe01      ECe 2      ECe 3      ECe 4      ECe 5      ECe 6      ECe 7      ECe 8      ECe 9      ECe10      ECe11      ECe12     Rain       ETo      Tmin      Tavg      Tmax      CO2
                                      mm      mm       mm     mm     mm     mm       mm       mm      m        mm       mm     %        mm       mm    %        mm      mm       %  degC-day     m       %      %      %      %      %      %       %       %       -        mm       mm       mm    %     g/m2    ton/ha      %    ton/ha   ton/ha       %       kg/m3   ton/ha   ton/ha      mm       mm       m       mm        mm        mm        mm        mm        mm         mm    ton/ha    ton/ha    ton/ha    ton/ha    ton/ha     m      dS/m    dS/m      %     m      dS/m       0.05       0.18       0.33       0.48       0.63       0.80       1.00       1.20       1.43       1.68       1.93       2.18       0.05       0.18       0.33       0.48       0.63       0.80       1.00       1.20       1.43       1.68       1.93       2.18       mm        mm     degC      degC      degC       ppm
     1     7  2011     1     1     267.9     9.4      0.0    0.0    9.3    0.1      0.0      0.0   -9.90     15.1     10.0     66      0.0      0.0   100     15.1    10.0      66     17.1    0.30     -9     -9     -9      0     -9     0.0     0.0      0    -9.00      0.0      0.0      0.0   100     0.0     0.000    -9.9    0.000    0.000      -9        0.00    0.000    0.000     267.9    267.9    0.30    33.9     125.1      34.6      30.7      21.1      15.5       6.9    0.000     0.000     0.000     0.000     0.000    0.30     0.00    0.00      0   -9.90   -9.00       11.0       11.7       11.7       11.7       11.7       11.7       11.7       11.7       11.7       11.7       11.7       11.7        0.0        0.0        0.0        0.0        0.0        0.0        0.0        0.0        0.0        0.0        0.0        0.0      9.4      13.8      20.2      26.4      32.6    391.85
     2     7  2011     2     1     267.9    10.8      0.0    0.0   10.7    0.2      0.0      0.0   -9.90     16.7     10.6     64      0.0      0.0   100     16.7    10.6      64     16.9    0.30     -9     -9     -9      0     -9     0.0     0.0      0    -9.00      0.0      0.0      0.0   100     0.0     0.000    -9.9    0.000    0.000      -9        0.00    0.000    0.000     267.9    267.9    0.30    33.9     125.1      34.6      30.7      22.0      15.5       6.9    0.000     0.000     0.000     0.000     0.000    0.30     0.00    0.00      0   -9.90   -9.00       11.0       11.7       11.7       11.7       11.7       11.7       11.7       11.7       11.7       11.7       11.7       11.7        0.0        0.0        0.0        0.0        0.0        0.0        0.0        0.0        0.0        0.0        0.0        0.0     10.8      15.2      19.9      27.2      34.5    391.85
     3     7  2011     3     1     261.6     1.0      0.0    0.0    1.0    0.0      0.0      0.0   -9.90     18.2      7.4     41      0.0      0.0   100     18.2     7.4      41     16.0    0.30     -9     -9     -9      0     -9     0.0     0.0      0    -9.00      0.0      0.0      0.0   100     0.0     0.000    -9.9    0.000    0.000      -9        0.00    0.000    0.000     261.6    261.6    0.30    27.6     125.1      34.6      30.7      22.9      15.5       6.9    0.000     0.000     0.000     0.000     0.000    0.30     0.00    0.00      0   -9.90   -9.00        4.5       11.7       11.7       11.7       11.7       11.7       11.7       11.7       11.7       11.7       11.7       11.7        0.0        0.0        0.0        0.0        0.0        0.0        0.0        0.0        0.0        0.0        0.0        0.0      1.0      16.6      18.0      26.8      35.6    391.85
     4     7  2011     4     1     260.7     8.1      0.0    0.0    8.1    0.0      0.0      0.0   -9.90     15.8      9.0     57      0.0      0.0   100     15.8     9.0      57     17.9    0.30     -9     -9     -9      0     -9     0.0     0.0      0    -9.00      0.0      0.0      0.0   100     0.0     0.000    -9.9    0.000    0.000      -9        0.00    0.000    0.000     260.7    260.7    0.30    26.7     125.1      34.6      30.7      21.5      15.5       6.9    0.000     0.000     0.000     0.000     0.000    0.30     0.00    0.00      0   -9.90   -9.00        3.7       11.7       11.7       11.7       11.7       11.7       11.7       11.7       11.7       11.7       11.7       11.7        0.0        0.0        0.0        0.0        0.0        0.0        0.0        0.0        0.0        0.0        0.0        0.0      8.1      14.4      21.9      28.1      34.4    391.85
     5     7  2011     5     1     258.6     2.6      0.0    0.0    2.6    0.0      0.0      0.0   -9.90     15.7      4.8     30      0.0      0.0   100     15.7     4.8      30     17.6    0.32     -9     -9     -9      0     -9     0.0     0.0      0    -9.00      0.0      0.0      0.0   100     0.0     0.000    -9.9    0.000    0.000      -9        0.00    0.000    0.000     258.6    258.6    0.32    26.9     133.5      36.9      32.8      22.9      16.5       7.4    0.000     0.000     0.000     0.000     0.000    0.32     0.00    0.00      0   -9.90   -9.00        1.5       11.7       11.7       11.7       11.7       11.7       11.7       11.7       11.7       11.7       11.7       11.7        0.0        0.0        0.0        0.0        0.0        0.0        0.0        0.0        0.0        0.0        0.0        0.0      2.6      14.2      21.1      27.5      33.8    391.85
     6     7  2011     6     1     262.9    13.9      0.0    0.0   13.9    0.0      0.0      0.0   -9.90     16.4      9.5     58      0.0      0.0   100     16.4     9.5      58     17.4    0.36     -9     -9     -9      0     -9     0.0     0.0      0    -9.00      0.0      0.0      0.0   100     0.0     0.000    -9.9    0.000    0.000      -9        0.00    0.000    0.000     262.9    262.9    0.36    36.0     150.6      41.6      37.0      26.3      18.7       8.4    0.000     0.000     0.000     0.000     0.000    0.36     0.00    0.00      0   -9.90   -9.00        5.9       11.7       11.7       11.7       11.7       11.7       11.7       11.7       11.7       11.7       11.7       11.7        0.0        0.0        0.0        0.0        0.0        0.0        0.0        0.0        0.0        0.0        0.0        0.0     13.9      14.9      20.8      27.7      34.6    391.85
     7     7  2011     7     2     260.3     0.9      1.4    0.0    0.9    0.0      0.0      0.0   -9.90     16.6      4.9     29      0.1      0.1   100     16.7     5.0      30     17.0    0.40     -9      0      0      0      0     0.4     0.4      0     0.01      0.1      0.1      0.1   100    34.3     0.003    -9.9    0.000    0.000     100        0.00    0.000    0.000     260.3    260.3    0.40    37.7     166.4      46.0      46.0      29.3      29.3       9.3    0.000     0.000     0.000     0.000     0.000    0.40     0.00    0.00      0   -9.90   -9.00        9.6        9.6        9.6       11.7       11.7       11.7       11.7       11.7       11.7       11.7       11.7       11.7        0.0        0.0        0.0        0.0        0.0        0.0        0.0        0.0        0.0        0.0        0.0        0.0      0.9      15.2      19.9      27.2      34.5    391.85
     8     7  2011     8     2     258.8     1.6      3.8    0.0    1.6    0.0      0.0      0.0   -9.90     14.9      6.7     45      0.1      0.1   100     15.0     6.9      46     18.4    0.43     -9      0      0      0      0     0.5     0.5      0     0.01      0.1      0.1      0.1   100    34.3     0.006    -9.9    0.000    0.000     100        0.00    0.000    0.000     258.8    258.8    0.43    40.9     181.2      50.1      50.1      30.6      30.6      10.2    0.000     0.000     0.000     0.000     0.000    0.43     0.00    0.00      0   -9.90   -9.00        9.4        9.4        9.4       11.2       11.7       11.7       11.7       11.7       11.7       11.7       11.7       11.7        0.0        0.0        0.0        0.0        0.0        0.0        0.0        0.0        0.0        0.0        0.0        0.0      1.6      13.7      22.9      28.4      34.0    391.85
     9     7  2011     9     2     258.7     7.1      2.8    0.0    7.1    0.0      0.0      0.0   -9.90     17.1      9.8     57      0.2      0.2   100     17.3    10.0      58     17.1    0.47      0      0      0      0      0     0.6     0.6      0     0.01      0.2      0.2      0.2   100    34.3     0.010    -9.9    0.000    0.000     100        0.00    0.000    0.000     258.7    258.7    0.47    45.1     195.4      54.0      54.0      35.1      35.1      11.0    0.000     0.000     0.000     0.000     0.000    0.47     0.00    0.00      0   -9.90   -9.00        9.6        9.6        9.7       10.5       11.7       11.7       11.7       11.7       11.7       11.7       11.7       11.7        0.0        0.0        0.0        0.0        0.0        0.0        0.0        0.0        0.0        0.0        0.0        0.0      7.1      15.8      20.2      27.8      35.5    391.85
    10     7  2011    10     2     257.8     8.0      1.2    0.0    8.0    0.0      0.0      0.0   -9.90     16.9      9.9     58      0.2      0.2   100     17.1    10.1      59     16.7    0.50      0      0      0      0      0     0.7     0.7      0     0.01      0.2      0.2      0.2   100    34.3     0.014    -9.9    0.000    0.000     100        0.00    0.000    0.000     257.8    257.8    0.50    47.8     209.1      57.8      57.8      37.3      37.3      11.9    0.000     0.000     0.000     0.000     0.000    0.50     0.00    0.00      0   -9.90   -9.00        9.6        9.6        9.7       10.0       11.7       11.7       11.7       11.7       11.7       11.7       11.7       11.7        0.0        0.0        0.0        0.0        0.0        0.0        0.0        0.0        0.0        0.0        0.0        0.0      8.0      15.6      19.5      27.2      34.8    391.85
    11     7  2011    11     2     256.7     3.2      4.1    0.0    3.2    0.0      0.0      0.0   -9.90     15.6      8.2     53      0.2      0.2   100     15.8     8.4      53     16.8    0.53      0      0      0      0      0     0.8     0.8      0     0.02      0.2      0.2      0.2   100    34.3     0.019    -9.9    0.000    0.000     100        0.00    0.000    0.000     256.7    256.7    0.53    50.0     222.3      61.4      61.4      38.4      38.4      12.6    0.000     0.000     0.000     0.000     0.000    0.53     0.00    0.00      0   -9.90   -9.00        9.5        9.5        9.5        9.6       11.7       11.7       11.7       11.7       11.7       11.7       11.7       11.7        0.0        0.0        0.0        0.0        0.0        0.0        0.0        0.0        0.0        0.0        0.0        0.0      3.2      14.4      19.6      26.4      33.2    391.85
    12     7  2011    12     2     257.0     3.0      5.9    0.0    3.0    0.0      0.0      0.0   -9.90     16.7      8.4     50      0.3      0.3   100     17.0     8.6      51     16.3    0.56      0      0      0      0      0     1.0     1.0      0     0.02      0.3      0.3      0.3   100    34.3     0.025    -9.9    0.000    0.000     100        0.00    0.000    0.000     257.0    257.0    0.56    53.6     235.2      65.0      65.0      41.8      41.8      13.4    0.000     0.000     0.000     0.000     0.000    0.56     0.00    0.00      0   -9.90   -9.00        9.6        9.6        9.6        9.6       11.6       11.7       11.7       11.7       11.7       11.7       11.7       11.7        0.0        0.0        0.0        0.0        0.0        0.0        0.0        0.0        0.0        0.0        0.0        0.0      3.0      15.4      18.5      26.4      34.2    391.85
    13     7  2011    13     2     255.9     5.2      3.3    0.0    5.2    0.0      0.0      0.0   -9.90     16.0      9.2     57      0.3      0.3   100     16.4     9.5      58     16.7    0.59      0      0      0      0      0     1.2     1.2      0     0.02      0.3      0.3      0.3   100    34.3     0.032    -9.9    0.000    0.000     100        0.00    0.000    0.000     255.9    255.9    0.59    56.5     247.7      68.4      68.4      43.4      43.4      14.1    0.000     0.000     0.000     0.000     0.000    0.59     0.00    0.00      0   -9.90   -9.00        9.5        9.5        9.6        9.6       11.0       11.7       11.7       11.7       11.7       11.7       11.7       11.7        0.0        0.0        0.0        0.0        0.0        0.0        0.0        0.0        0.0        0.0        0.0        0.0      5.2      14.9      19.4      26.6      33.8    391.85
    14     7  2011    14     2     257.9    12.2      0.0    0.0   12.1    0.1      0.0      0.0   -9.90     14.5      9.8     68      0.3      0.3   100     14.8    10.1      68     16.9    0.62      0      0      0      0      0     1.4     1.4      0     0.02      0.3      0.3      0.3   100    34.3     0.041    -9.9    0.000    0.000     100        0.00    0.000    0.000     257.9    257.9    0.62    61.7     259.9      71.8      71.8      43.7      43.7      14.8    0.000     0.000     0.000     0.000     0.000    0.62     0.00    0.00      0   -9.90   -9.00       11.6        9.5        9.6        9.6       11.0       11.7       11.7       11.7       11.7       11.7       11.7       11.7        0.0        0.0        0.0        0.0        0.0        0.0        0.0        0.0        0.0        0.0        0.0        0.0     12.2      13.5      19.8      25.9      32.0    391.85
    15     7  2011    15     2     254.7     3.4      2.6    0.0    3.4    0.0      0.0      0.0   -9.90     16.2      8.8     54      0.4      0.4   100     16.7     9.2      55     16.4    0.65      0      0      0      0      0     1.6     1.6      0     0.03      0.4      0.4      0.4   100    34.3     0.051    -9.9    0.000    0.000     100        0.00    0.000    0.000     254.7    254.7    0.65    62.1     271.9      75.1      75.1      48.0      48.0      15.6    0.000     0.000     0.000     0.000     0.000    0.65     0.00    0.00      0   -9.90   -9.00        9.6        9.6        9.6        9.6       10.1       11.7       11.7       11.7       11.7       11.7       11.7       11.7        0.0        0.0        0.0        0.0        0.0        0.0        0.0        0.0        0.0        0.0        0.0        0.0      3.4      15.2      18.9      26.4      34.0    391.85
    16     7  2011    16     2     253.8     5.5      3.2    0.0    5.5    0.0      0.0      0.0   -9.90     15.8      9.1     58      0.5      0.5   100     16.3     9.6      59     17.0    0.67      0      0      0      0      0     1.9     1.9      0     0.03      0.5      0.5      0.5   100    34.3     0.063    -9.9    0.000    0.000     100        0.00    0.000    0.000     253.8    253.8    0.67    64.1     283.6      78.3      78.3      49.6      49.6      16.2    0.000     0.000     0.000     0.000     0.000    0.67     0.00    0.00      0   -9.90   -9.00        9.5        9.5        9.6        9.6        9.7       11.7       11.7       11.7       11.7       11.7       11.7       11.7        0.0        0.0        0.0        0.0        0.0        0.0        0.0        0.0        0.0        0.0        0.0        0.0      5.5      14.8      20.0      27.0      34.0    391.85
    17     7  2011    17     2     253.8     8.5      1.7    0.0    8.5    0.0      0.0      0.0   -9.90     15.9      9.6     60      0.6      0.6   100     16.5    10.2      62     17.7    0.70      0      0      0      0      0     2.3     2.3      0     0.04      0.6      0.6      0.6   100    34.3     0.076    -9.9    0.000    0.000     100        0.00    0.000    0.000     253.8    253.8    0.70    66.8     295.2      81.5      81.5      52.0      52.0      16.9    0.000     0.000     0.000     0.000     0.000    0.70     0.00    0.00      0   -9.90   -9.00        9.5        9.5        9.6        9.6        9.6       11.7       11.7       11.7       11.7       11.7       11.7       11.7        0.0        0.0        0.0        0.0        0.0        0.0        0.0        0.0        0.0        0.0        0.0        0.0      8.5      15.0      21.3      28.2      35.0    391.85
    18     7  2011    18     2     252.0     4.6      2.9    0.0    4.6    0.0      0.0      0.0   -9.90     14.2      8.6     61      0.6      0.6   100     14.8     9.2      62     17.4    0.73      0      0      0      0      0     2.7     2.7      0     0.05      0.6      0.6      0.6   100    34.3     0.093    -9.9    0.000    0.000     100        0.00    0.000    0.000     252.0    252.0    0.73    68.7     306.5      84.6      84.6      51.6      51.6      17.6    0.000     0.000     0.000     0.000     0.000    0.73     0.00    0.00      0   -9.90   -9.00        9.4        9.4        9.4        9.4        9.4       11.4       11.7       11.7       11.7       11.7       11.7       11.7        0.0        0.0        0.0        0.0        0.0        0.0        0.0        0.0        0.0        0.0        0.0        0.0      4.6      13.5      20.8      26.7      32.6    391.85
    19     7  2011    19     2     252.2     0.8      6.5    0.0    0.8    0.0      0.0      0.0   -9.90     15.7      6.2     40      0.8      0.8   100     16.5     7.1      43     17.3    0.75      9      0      0      0      0     3.1     3.1      0     0.05      0.8      0.8      0.8   100    34.3     0.111    -9.9    0.000    0.000     100        0.00    0.000    0.000     252.2    252.2    0.75    72.6     317.7      87.7      87.7      56.0      56.0      18.3    0.000     0.000     0.000     0.000     0.000    0.75     0.00    0.00      0   -9.90   -9.00        9.6        9.6        9.6        9.6        9.6       10.9       11.7       11.7       11.7       11.7       11.7       11.7        0.0        0.0        0.0        0.0        0.0        0.0        0.0        0.0        0.0        0.0        0.0        0.0      0.8      15.1      20.7      27.7      34.7    391.85
    20     7  2011    20     2     252.0     4.4      5.3    0.0    4.4    0.0      0.0      0.0   -9.90     16.5      9.0     54      1.0      1.0   100     17.5    10.0      57     16.1    0.78      0      0      0      0      0     3.7     3.7      0     0.06      1.0      1.0      1.0   100    34.3     0.134    -9.9    0.000    0.000     100        0.00    0.000    0.000     252.0    252.0    0.78    75.7     328.7      90.8      90.8      59.5      59.5      18.9    0.000     0.000     0.000     0.000     0.000    0.78     0.00    0.00      0   -9.90   -9.00        9.7        9.7        9.7        9.7        9.7       10.4       11.7       11.7       11.7       11.7       11.7       11.7        0.0        0.0        0.0        0.0        0.0        0.0        0.0        0.0        0.0        0.0        0.0        0.0      4.4      16.0      18.1      26.5      34.8    391.85
    21     7  2011    21     2     250.6     6.9      2.2    0.0    6.9    0.0      0.0      0.0   -9.90     15.5      9.3     60      1.2      1.2   100     16.7    10.5      63     16.8    0.81      0      0      0      0      0     4.3     4.3      0     0.08      1.2      1.2      1.2   100    34.3     0.160    -9.9    0.000    0.000      99        0.00    0.000    0.000     250.6    250.6    0.81    77.4     339.6      93.8      93.8      60.1      60.1      19.5    0.000     0.000     0.000     0.000     0.000    0.81     0.00    0.00      0   -9.90   -9.00        9.6        9.6        9.6        9.6        9.6       10.0       11.7       11.7       11.7       11.7       11.7       11.7        0.0        0.0        0.0        0.0        0.0        0.0        0.0        0.0        0.0        0.0        0.0        0.0      6.9      15.2      19.6      27.0      34.4    391.85
    22     7  2011    22     2     249.5     6.1      3.1    0.0    6.1    0.0      0.0      0.0   -9.90     14.7      9.0     61      1.3      1.3   100     16.0    10.3      65     16.5    0.83      0      0      0      0      0     5.1     5.1      0     0.09      1.3      1.3      1.3   100    34.3     0.190    -9.9    0.000    0.000      99        0.00    0.000    0.000     249.5    249.5    0.83    79.0     350.3      96.7      96.7      60.9      60.9      20.2    0.000     0.000     0.000     0.000     0.000    0.83     0.00    0.00      0   -9.90   -9.00        9.5        9.5        9.5        9.5        9.5        9.7       11.7       11.7       11.7       11.7       11.7       11.7        0.0        0.0        0.0        0.0        0.0        0.0        0.0        0.0        0.0        0.0        0.0        0.0      6.1      14.6      19.0      26.1      33.2    391.85
    23     7  2011    23     2     250.3    12.7      0.0    0.0   12.7    0.1      0.0      0.0   -9.90     15.5     10.2     66      1.6      1.6   100     17.1    11.8      69     17.1    0.86      0      0      0      0      0     6.0     6.0      0     0.10      1.6      1.6      1.6   100    34.3     0.226    -9.9    0.000    0.000      99        0.00    0.000    0.000     250.3    250.3    0.86    82.3     360.9      99.7      99.7      64.7      64.7      20.8    0.000     0.000     0.000     0.000     0.000    0.86     0.00    0.00      0   -9.90   -9.00       10.4        9.5        9.5        9.5        9.5        9.7       11.7       11.7       11.7       11.7       11.7       11.7        0.0        0.0        0.0        0.0        0.0        0.0        0.0        0.0        0.0        0.0        0.0        0.0     12.7      15.7      20.1      27.7      35.3    391.85
    24     7  2011    24     2     249.2     6.4      3.4    0.0    6.4    0.0      0.0      0.0   -9.90     14.2      9.1     64      1.8      1.8   100     16.0    10.9      68     17.4    0.88      0      0      0      0      0     7.1     7.1      0     0.12      1.8      1.8      1.8   100    34.3     0.268    -9.9    0.000    0.000      99        0.00    0.000    0.000     249.2    249.2    0.88    83.6     371.4     102.5     102.5      64.6      64.6      21.4    0.000     0.000     0.000     0.000     0.000    0.88     0.00    0.00      0   -9.90   -9.00        9.5        9.5        9.5        9.5        9.5        9.6       11.7       11.7       11.7       11.7       11.7       11.7        0.0        0.0        0.0        0.0        0.0        0.0        0.0        0.0        0.0        0.0        0.0        0.0      6.4      14.6      20.8      27.5      34.1    391.85
    25     7  2011    25     2     248.2     5.6      3.8    0.0    5.6    0.0      0.0      0.0   -9.90     13.0      8.4     65      2.0      2.0   100     15.0    10.4      69     16.7    0.91      0      0      0      0      0     8.4     8.4      0     0.14      2.0      2.0      2.0   100    34.3     0.317    -9.9    0.000    0.000      99        0.00    0.000    0.000     248.2    248.2    0.91    85.2     381.7     105.4     105.4      64.7      64.7      22.0    0.000     0.000     0.000     0.000     0.000    0.91     0.00    0.00      0   -9.90   -9.00        9.4        9.4        9.5        9.5        9.5        9.5       11.6       11.7       11.7       11.7       11.7       11.7        0.0        0.0        0.0        0.0        0.0        0.0        0.0        0.0        0.0        0.0        0.0        0.0      5.6      13.7      19.3      25.7      32.1    391.85
    26     7  2011    26     2     248.1     1.4      7.1    0.0    1.4    0.0      0.0      0.0   -9.90     13.2      6.3     48      2.4      2.4   100     15.5     8.7      56     17.2    0.93      4      0      0      0      0     9.8     9.8      0     0.17      2.4      2.4      2.4   100    34.3     0.374    -9.9    0.000    0.000      99        0.00    0.000    0.000     248.1    248.1    0.93    88.4     392.0     108.2     108.2      67.5      67.5      22.6    0.000     0.000     0.000     0.000     0.000    0.93     0.00    0.00      0   -9.90   -9.00        9.5        9.5        9.5        9.5        9.5        9.5       11.3       11.7       11.7       11.7       11.7       11.7        0.0        0.0        0.0        0.0        0.0        0.0        0.0        0.0        0.0        0.0        0.0        0.0      1.4      14.2      20.4      27.0      33.5    391.85
    27     7  2011    27     2     248.2     1.5      8.1    0.0    1.5    0.0      0.0      0.0   -9.90     13.7      6.5     48      3.0      3.0   100     16.7     9.5      57     16.7    0.95      3      0      0      0      0    11.5    11.5      0     0.19      3.0      3.0      3.0   100    34.3     0.440    -9.9    0.000    0.000      99        0.00    0.000    0.000     248.2    248.2    0.95    91.9     402.2     111.0     111.0      71.4      71.4      23.2    0.000     0.000     0.000     0.000     0.000    0.95     0.00    0.00      0   -9.90   -9.00        9.6        9.6        9.6        9.6        9.6        9.6       10.9       11.7       11.7       11.7       11.7       11.7        0.0        0.0        0.0        0.0        0.0        0.0        0.0        0.0        0.0        0.0        0.0        0.0      1.5      15.3      19.4      26.9      34.4    391.85
    28     7  2011    28     2     246.1     6.4      2.9    0.0    6.4    0.0      0.0      0.0   -9.90     12.2      8.3     68      3.2      3.2   100     15.4    11.5      74     17.6    0.98      0      0      0      0      0    13.6    13.6      0     0.23      3.2      3.2      3.2   100    34.3     0.518    -9.9    0.000    0.000      98        0.00    0.000    0.000     246.1    246.1    0.98    93.0     412.2     113.8     113.8      70.8      70.8      23.8    0.000     0.000     0.000     0.000     0.000    0.98     0.00    0.00      0   -9.90   -9.00        9.5        9.5        9.5        9.5        9.5        9.5       10.3       11.7       11.7       11.7       11.7       11.7        0.0        0.0        0.0        0.0        0.0        0.0        0.0        0.0        0.0        0.0        0.0        0.0      6.4      14.2      21.2      27.5      33.8    391.85
    29     7  2011    29     2     244.3     2.8      5.9    0.0    2.8    0.0      0.0      0.0   -9.90     11.0      6.9     63      3.5      3.5   100     14.5    10.4      72     18.0    1.00      0      0      0      0      0    16.0    16.0      0     0.26      3.5      3.5      3.5   100    34.3     0.607    -9.9    0.000    0.000      98        0.00    0.000    0.000     244.3    244.3    1.00    94.1     422.2     116.6     116.6      70.7      70.7      24.4    0.000     0.000     0.000     0.000     0.000    1.00     0.00    0.00      0   -9.90   -9.00        9.4        9.4        9.4        9.4        9.4        9.4        9.9       11.7       11.7       11.7       11.7       11.7        0.0        0.0        0.0        0.0        0.0        0.0        0.0        0.0        0.0        0.0        0.0        0.0      2.8      13.3      21.9      27.5      33.1    391.85
    30     7  2011    30     2     244.4     3.5      8.0    0.0    3.5    0.0      0.0      0.0   -9.90     10.8      7.3     67      4.2      4.2   100     15.1    11.5      76     17.3    1.02      0      0      0      0      0    18.9    18.9      0     0.30      4.2      4.2      4.2   100    34.3     0.712    -9.9    0.000    0.000      98        0.00    0.000    0.000     244.4    244.4    1.02    96.6     432.0     119.3     119.3      73.6      73.6      25.0    0.000     0.000     0.000     0.000     0.000    1.02     0.00    0.00      0   -9.90   -9.00        9.4        9.4        9.5        9.5        9.5        9.5        9.6       11.7       11.7       11.7       11.7       11.7        0.0        0.0        0.0        0.0        0.0        0.0        0.0        0.0        0.0        0.0        0.0        0.0      3.5      13.9      20.6      26.8      33.0    391.85
    31     7  2011    31     2     245.2     3.3      9.9    0.0    3.3    0.0      0.0      0.0   -9.90     10.8      7.2     67      5.2      5.2   100     16.0    12.4      78     17.1    1.05      0      0      0      0      0    22.3    22.3      0     0.35      5.2      5.2      5.2   100    34.3     0.832    -9.9    0.000    0.000      98        0.00    0.000    0.000     245.2    245.2    1.05    99.7     441.8     122.0     122.0      77.4      77.4      25.6    0.000     0.000     0.000     0.000     0.000    1.05     0.00    0.00      0   -9.90   -9.00        9.5        9.5        9.6        9.6        9.6        9.6        9.6       11.7       11.7       11.7       11.7       11.7        0.0        0.0        0.0        0.0        0.0        0.0        0.0        0.0        0.0        0.0        0.0        0.0      3.3      14.8      20.1      27.1      34.1    391.85
     1     8  2011    32     2     245.0     6.1      7.1    0.0    6.1    0.0      0.0      0.0   -9.90      9.9      7.4     76      5.9      5.9   100     15.8    13.4      85     16.7    1.07      0      0      0      0      0    26.3    26.3      0     0.41      5.9      5.9      5.9   100    34.3     0.971    -9.9    0.000    0.000      98        0.00    0.000    0.000     245.0    245.0    1.07   101.7     451.5     124.7     124.7      78.7      78.7      26.1    0.000     0.000     0.000     0.000     0.000    1.07     0.00    0.00      0   -9.90   -9.00        9.5        9.5        9.6        9.6        9.6        9.6        9.6       11.7       11.7       11.7       11.7       11.7        0.0        0.0        0.0        0.0        0.0        0.0        0.0        0.0        0.0        0.0        0.0        0.0      6.1      14.7      19.4      26.5      33.5    391.85
     2     8  2011    33     2     245.1     8.6      5.7    0.0    8.6    0.0      0.0      0.0   -9.90      9.0      7.3     81      6.9      6.9   100     15.9    14.2      89     16.5    1.09      0      0      0      0      0    31.0    31.0      0     0.47      6.9      6.9      6.9   100    34.3     1.131    -9.9    0.000    0.000      98        0.00    0.000    0.000     245.1    245.1    1.09   104.0     461.2     127.3     127.3      80.7      80.7      26.7    0.000     0.000     0.000     0.000     0.000    1.09     0.00    0.00      0   -9.90   -9.00        9.5        9.5        9.6        9.6        9.6        9.6        9.6       11.7       11.7       11.7       11.7       11.7        0.0        0.0        0.0        0.0        0.0        0.0        0.0        0.0        0.0        0.0        0.0        0.0      8.6      14.8      19.1      26.3      33.5    391.85
     3     8  2011    34     2     245.0     4.7      9.8    0.0    4.7    0.0      0.0      0.0   -9.90      8.1      6.7     83      8.0      8.0   100     16.0    14.6      91     17.0    1.12      0      0      0      0      0    36.6    36.6      0     0.53      8.0      8.0      8.0   100    34.3     1.313    -9.9    0.000    0.000      98        0.00    0.000    0.000     245.0    245.0    1.12   106.7     470.7     130.0     130.0      82.8      82.8      27.3    0.000     0.000     0.000     0.000     0.000    1.12     0.00    0.00      0   -9.90   -9.00        9.5        9.5        9.6        9.6        9.6        9.6        9.6       11.5       11.7       11.7       11.7       11.7        0.0        0.0        0.0        0.0        0.0        0.0        0.0        0.0        0.0        0.0        0.0        0.0      4.7      15.0      20.0      27.2      34.3    391.85
     4     8  2011    35     2     245.7     8.3      8.8    0.0    8.3    0.0      0.0      0.0   -9.90      7.5      6.6     89      9.8      9.8   100     17.2    16.3      95     16.6    1.14      0      0      0      0      0    43.1    43.1      0     0.60      9.8      9.8      9.8   100    34.3     1.521    -9.9    0.000    0.000      98        0.00    0.000    0.000     245.7    245.7    1.14   110.5     480.2     132.6     132.6      87.3      87.3      27.8    0.000     0.000     0.000     0.000     0.000    1.14     0.00    0.00      0   -9.90   -9.00        9.7        9.7        9.7        9.7        9.7        9.7        9.7       11.2       11.7       11.7       11.7       11.7        0.0        0.0        0.0        0.0        0.0        0.0        0.0        0.0        0.0        0.0        0.0        0.0      8.3      16.1      19.1      27.4      35.6    391.85
     5     8  2011    36     2     242.7     1.9      9.3    0.0    1.9    0.0      0.0      0.0   -9.90      5.5      4.3     79      9.8      9.8   100     15.3    14.2      92     17.1    1.16      0      0      0      0      0    50.6    50.6      0     0.68      9.8      9.8      9.8   100    34.3     1.755    -9.9    0.000    0.000      98        0.00    0.000    0.000     242.7    242.7    1.16   110.7     489.6     135.2     135.2      84.8      84.8      28.4    0.000     0.000     0.000     0.000     0.000    1.16     0.00    0.00      0   -9.90   -9.00        9.5        9.5        9.5        9.5        9.5        9.5        9.5       10.7       11.7       11.7       11.7       11.7        0.0        0.0        0.0        0.0        0.0        0.0        0.0        0.0        0.0        0.0        0.0        0.0      1.9      14.4      20.2      26.9      33.6    391.85
     6     8  2011    37     2     240.5     7.6      4.5    0.0    7.6    0.0      0.0      0.0   -9.90      4.2      4.2    100     10.0     10.0   100     14.3    14.2     100     17.1    1.18      0      0      0      0      0    57.4    57.4      0     0.75     10.0     10.0     10.0   100    34.3     2.010    -9.9    0.000    0.000      98        0.00    0.000    0.000     240.5    240.5    1.18   111.5     499.0     137.8     137.8      84.0      84.0      28.9    0.000     0.000     0.000     0.000     0.000    1.18     0.00    0.00      0   -9.90   -9.00        9.4        9.4        9.4        9.4        9.4        9.4        9.4       10.2       11.7       11.7       11.7       11.7        0.0        0.0        0.0        0.0        0.0        0.0        0.0        0.0        0.0        0.0        0.0        0.0      7.6      13.4      20.3      26.3      32.3    391.85
     7     8  2011    38     2     239.7     8.2      5.1    0.0    8.2    0.0      0.0      0.0   -9.90      3.5      3.5    100     10.7     10.7   100     14.2    14.2     100     17.9    1.20      0      0      0      0      0    63.2    63.2      0     0.80     10.7     10.7     10.7   100    34.3     2.284    -9.9    0.000    0.000      98        0.00    0.000    0.000     239.7    239.7    1.20   113.3     508.3     140.3     140.3      85.5      85.5      29.5    0.000     0.000     0.000     0.000     0.000    1.20     0.00    0.00      0   -9.90   -9.00        9.4        9.4        9.4        9.4        9.4        9.4        9.4        9.8       11.7       11.7       11.7       11.7        0.0        0.0        0.0        0.0        0.0        0.0        0.0        0.0        0.0        0.0        0.0        0.0      8.2      13.4      21.8      27.5      33.2    391.85
     8     8  2011    39     2     240.4     9.6      6.2    0.0    9.6    0.0      0.0      0.0   -9.90      3.1      3.1    100     12.0     12.0   100     15.1    15.1     100     17.7    1.23      0      0      0      0      0    68.1    68.1      0     0.84     12.0     12.0     12.0   100    34.3     2.571    -9.9    0.000    0.000      98        0.00    0.000    0.000     240.4    240.4    1.23   116.3     517.5     142.9     142.9      89.4      89.4      30.0    0.000     0.000     0.000     0.000     0.000    1.23     0.00    0.00      0   -9.90   -9.00        9.5        9.5        9.5        9.5        9.5        9.5        9.5        9.6       11.7       11.7       11.7       11.7        0.0        0.0        0.0        0.0        0.0        0.0        0.0        0.0        0.0        0.0        0.0        0.0      9.6      14.3      21.3      27.7      34.1    391.85
     9     8  2011    40     2     240.8     0.6     14.9    0.0    0.6    0.0      0.0      0.0   -9.90      2.8      2.3     85     12.8     12.8   100     15.5    15.1      97     17.3    1.25      9      0      0      0      0    71.8    71.8      0     0.87     12.8     12.8     12.8   100    34.3     2.868    -9.9    0.000    0.000      98        0.00    0.000    0.000     240.8    240.8    1.25   118.8     526.7     145.4     145.4      92.1      92.1      30.6    0.000     0.000     0.000     0.000     0.000    1.25     0.00    0.00      0   -9.90   -9.00        9.5        9.5        9.6        9.6        9.6        9.6        9.6        9.6       11.7       11.7       11.7       11.7        0.0        0.0        0.0        0.0        0.0        0.0        0.0        0.0        0.0        0.0        0.0        0.0      0.6      14.8      20.7      27.5      34.4    391.85
    10     8  2011    41     2     239.5     9.3      3.9    0.0    9.3    0.0      0.0      0.0   -9.90      2.2      2.2    100     12.4     12.4   100     14.5    14.5     100     17.9    1.27      0      0      0      0      0    75.4    75.4      0     0.89     12.4     12.4     12.4   100    34.3     3.174    -9.9    0.000    0.000      98        0.00    0.000    0.000     239.5    239.5    1.27   119.6     535.8     147.9     147.9      91.2      91.2      31.1    0.000     0.000     0.000     0.000     0.000    1.27     0.00    0.00      0   -9.90   -9.00        9.4        9.4        9.5        9.5        9.5        9.5        9.5        9.5       11.7       11.7       11.7       11.7        0.0        0.0        0.0        0.0        0.0        0.0        0.0        0.0        0.0        0.0        0.0        0.0      9.3      13.8      21.8      27.8      33.7    391.85
    11     8  2011    42     2     240.8     2.7     14.0    0.0    2.7    0.0      0.0      0.0   -9.90      2.0      2.0    100     13.5     13.5   100     15.5    15.5     100     17.3    1.29      0      0      0      0      0    78.4    78.4      0     0.92     13.5     13.5     13.5   100    34.3     3.489    -9.9    0.000    0.000      98        0.00    0.000    0.000     240.8    240.8    1.29   122.8     544.9     150.4     150.4      95.2      95.2      31.6    0.000     0.000     0.000     0.000     0.000    1.29     0.00    0.00      0   -9.90   -9.00        9.5        9.5        9.6        9.6        9.6        9.6        9.6        9.6       11.7       11.7       11.7       11.7        0.0        0.0        0.0        0.0        0.0        0.0        0.0        0.0        0.0        0.0        0.0        0.0      2.7      14.7      20.6      27.5      34.4    391.85
    12     8  2011    43     2     240.8     3.8     11.9    0.0    3.8    0.0      0.0      0.0   -9.90      1.7      1.7    100     14.0     14.0   100     15.7    15.7     100     17.3    1.31      0      0      0      0      0    80.9    80.9      0     0.94     14.0     14.0     14.0   100    34.3     3.809    -9.9    0.000    0.000      99        0.00    0.000    0.000     240.8    240.8    1.31   125.3     553.9     152.9     152.9      97.3      97.3      32.2    0.000     0.000     0.000     0.000     0.000    1.31     0.00    0.00      0   -9.90   -9.00        9.5        9.5        9.6        9.6        9.6        9.6        9.6        9.6       11.6       11.7       11.7       11.7        0.0        0.0        0.0        0.0        0.0        0.0        0.0        0.0        0.0        0.0        0.0        0.0      3.8      14.9      20.7      27.7      34.7    391.85
    13     8  2011    44     2     238.7     2.7      9.7    0.0    2.7    0.0      0.0      0.0   -9.90      1.4      1.4    100     13.2     13.2   100     14.6    14.6     100     17.1    1.33      0      0      0      0      0    83.1    83.1      0     0.95     13.2     13.2     13.2   100    34.3     4.135    -9.9    0.000    0.000      99        0.00    0.000    0.000     238.7    238.7    1.33   126.3     562.8     155.4     155.4      95.9      95.9      32.7    0.000     0.000     0.000     0.000     0.000    1.33     0.00    0.00      0   -9.90   -9.00        9.4        9.4        9.5        9.5        9.5        9.5        9.5        9.5       11.3       11.7       11.7       11.7        0.0        0.0        0.0        0.0        0.0        0.0        0.0        0.0        0.0        0.0        0.0        0.0      2.7      13.9      20.2      26.5      32.9    391.85
    14     8  2011    45     2     238.6     2.9     12.2    0.0    2.9    0.0      0.0      0.0   -9.90      1.2      1.2    100     14.0     14.0   100     15.2    15.2     100     17.0    1.35      0      0      0      0      0    85.0    85.0      0     0.96     14.0     14.0     14.0   100    34.3     4.466    -9.9    0.000    0.000      99        0.00    0.000    0.000     238.6    238.6    1.35   129.3     571.7     157.8     157.8      99.2      99.2      33.2    0.000     0.000     0.000     0.000     0.000    1.35     0.00    0.00      0   -9.90   -9.00        9.5        9.5        9.5        9.5        9.5        9.5        9.5        9.5       10.9       11.7       11.7       11.7        0.0        0.0        0.0        0.0        0.0        0.0        0.0        0.0        0.0        0.0        0.0        0.0      2.9      14.5      20.1      26.9      33.8    391.85
    15     8  2011    46     2     237.3     8.6      5.2    0.0    8.6    0.0      0.0      0.0   -9.90      1.0      1.0    100     14.0     14.0   100     15.0    15.0     100     17.5    1.37      0      0      0      0      0    86.5    86.5      0     0.97     14.0     14.0     14.0   100    34.3     4.800    -9.9    0.000    0.000      99        0.00    0.000    0.000     237.3    237.3    1.37   131.1     580.6     160.3     160.3     100.4     100.4      33.8    0.000     0.000     0.000     0.000     0.000    1.37     0.00    0.00      0   -9.90   -9.00        9.5        9.5        9.5        9.5        9.5        9.5        9.5        9.5       10.5       11.7       11.7       11.7        0.0        0.0        0.0        0.0        0.0        0.0        0.0        0.0        0.0        0.0        0.0        0.0      8.6      14.4      21.0      27.5      34.1    391.85
    16     8  2011    47     2     236.7     3.2     11.4    0.0    3.2    0.0      0.0      0.0   -9.90      0.9      0.9    100     14.4     14.4   100     15.3    15.3     100     16.7    1.40      0      0      0      0      0    87.8    87.8      0     0.98     14.4     14.4     14.4   100    34.3     5.137    -9.9    0.000    0.000      99        0.00    0.000    0.000     236.7    236.7    1.40   133.2     589.4     162.7     162.7     102.6     102.6      34.3    0.000     0.000     0.000     0.000     0.000    1.40     0.00    0.00      0   -9.90   -9.00        9.5        9.5        9.5        9.5        9.5        9.5        9.5        9.5       10.2       11.7       11.7       11.7        0.0        0.0        0.0        0.0        0.0        0.0        0.0        0.0        0.0        0.0        0.0        0.0      3.2      14.6      19.3      26.4      33.6    391.85
    17     8  2011    48     2     236.4     5.0     10.2    0.0    5.0    0.0      0.0      0.0   -9.90      0.8      0.8    100     14.7     14.7   100     15.5    15.5     100     17.4    1.42      0      0      0      0      0    89.0    89.0      0     0.99     14.7     14.7     14.7   100    34.3     5.477    -9.9    0.000    0.000      99        0.00    0.000    0.000     236.4    236.4    1.42   135.4     598.2     165.1     165.1     104.9     104.9      34.8    0.000     0.000     0.000     0.000     0.000    1.42     0.00    0.00      0   -9.90   -9.00        9.5        9.5        9.6        9.6        9.6        9.6        9.6        9.6        9.9       11.7       11.7       11.7        0.0        0.0        0.0        0.0        0.0        0.0        0.0        0.0        0.0        0.0        0.0        0.0      5.0      14.8      20.7      27.7      34.7    391.85
    18     8  2011    49     2     235.2     2.7     11.1    0.0    2.7    0.0      0.0      0.0   -9.90      0.7      0.7    100     14.3     14.3   100     15.0    15.0     100     17.5    1.44      0      0      0      0      0    89.9    89.9      0     1.00     14.3     14.3     14.3   100    34.3     5.819    -9.9    0.000    0.000      99        0.00    0.000    0.000     235.2    235.2    1.44   136.4     606.9     167.5     167.5     104.9     104.9      35.3    0.000     0.000     0.000     0.000     0.000    1.44     0.00    0.00      0   -9.90   -9.00        9.5        9.5        9.5        9.5        9.5        9.5        9.5        9.5        9.7       11.7       11.7       11.7        0.0        0.0        0.0        0.0        0.0        0.0        0.0        0.0        0.0        0.0        0.0        0.0      2.7      14.3      20.9      27.5      34.1    391.85
    19     8  2011    50     2     236.5     2.2     15.1    0.0    2.2    0.0      0.0      0.0   -9.90      0.7      0.7    100     15.4     15.4   100     16.0    16.0     100     16.8    1.46      0      0      0      0      0    90.7    90.7      0     1.00     15.4     15.4     15.4   100    34.3     6.163    -9.9    0.000    0.000      99        0.00    0.000    0.000     236.5    236.5    1.46   139.7     615.5     169.9     169.9     109.5     109.5      35.8    0.000     0.000     0.000     0.000     0.000    1.46     0.00    0.00      0   -9.90   -9.00        9.6        9.6        9.6        9.6        9.6        9.6        9.6        9.6        9.6       11.7       11.7       11.7        0.0        0.0        0.0        0.0        0.0        0.0        0.0        0.0        0.0        0.0        0.0        0.0      2.2      15.3      19.6      27.2      34.8    391.85
    20     8  2011    51     2     234.8     3.5      9.7    0.0    3.5    0.0      0.0      0.0   -9.90      0.5      0.5    100     14.4     14.4   100     14.9    14.9     100     16.5    1.48      0      0      0      0      0    91.4    91.4      0     1.01     14.4     14.4     14.4   100    34.3     6.509    -9.9    0.000    0.000      99        0.00    0.000    0.000     234.8    234.8    1.48   140.1     624.2     172.3     172.3     107.7     107.7      36.3    0.000     0.000     0.000     0.000     0.000    1.48     0.00    0.00      0   -9.90   -9.00        9.5        9.5        9.5        9.5        9.5        9.5        9.5        9.5        9.6       11.7       11.7       11.7        0.0        0.0        0.0        0.0        0.0        0.0        0.0        0.0        0.0        0.0        0.0        0.0      3.5      14.3      19.0      26.0      33.0    391.85
    21     8  2011    52     2     236.7     6.5     11.7    0.0    6.5    0.0      0.0      0.0   -9.90      0.5      0.5    100     15.7     15.7   100     16.2    16.2     100     16.5    1.50      0      0      0      0      0    91.9    91.9      0     1.01     15.7     15.7     15.7   100    34.3     6.856    -9.9    0.000    0.000      99        0.00    0.000    0.000     236.7    236.7    1.50   143.9     632.8     174.7     174.7     113.2     113.2      36.8    0.000     0.000     0.000     0.000     0.000    1.50     0.00    0.00      0   -9.90   -9.00        9.6        9.6        9.6        9.6        9.6        9.6        9.6        9.6        9.6       11.7       11.7       11.7        0.0        0.0        0.0        0.0        0.0        0.0        0.0        0.0        0.0        0.0        0.0        0.0      6.5      15.5      19.0      27.0      34.9    391.85
    22     8  2011    53     2     234.9    12.6      0.0    0.0   12.5    0.1      0.0      0.0   -9.90      0.4      0.4    100     13.9     13.9   100     14.3    14.3     100     17.3    1.52      0      0      0      0      0    92.4    92.4      0     1.01     13.9     13.9     13.9   100    34.3     7.204    -9.9    0.000    0.000      99        0.00    0.000    0.000     234.9    234.9    1.52   144.1     641.3     177.0     177.0     108.7     108.7      37.3    0.000     0.000     0.000     0.000     0.000    1.52     0.00    0.00      0   -9.90   -9.00       19.1        6.8        6.8        7.9        9.6        9.6        9.6        9.6        9.6       11.7       11.7       11.7        0.0        0.0        0.0        0.0        0.0        0.0        0.0        0.0        0.0        0.0        0.0        0.0     12.6      13.7      20.7      26.9      33.1    391.85
    23     8  2011    54     2     237.2    11.2      7.8    0.0   10.9    0.3      0.0      0.0   -9.90      0.4      0.4    100     16.1     16.1   100     16.5    16.5     100     16.6    1.54      0      0      0      0      0    92.8    92.8      0     1.02     16.1     16.1     16.1   100    34.3     7.552    -9.9    0.000    0.000      99        0.00    0.000    0.000     237.2    237.2    1.54   148.2     649.8     179.4     179.4     117.0     117.0      37.8    0.000     0.000     0.000     0.000     0.000    1.54     0.00    0.00      0   -9.90   -9.00        9.6        9.6        9.7        9.7        9.7        9.7        9.7        9.7        9.7       11.7       11.7       11.7        0.0        0.0        0.0        0.0        0.0        0.0        0.0        0.0        0.0        0.0        0.0        0.0     11.2      15.8      19.1      27.3      35.4    391.85
    24     8  2011    55     2     235.3     2.2     11.4    0.0    2.2    0.0      0.0      0.0   -9.90      0.4      0.4    100     15.0     15.0   100     15.4    15.4     100     16.7    1.56      0      0      0      0      0    93.2    93.2      0     1.02     15.0     15.0     15.0   100    34.3     7.902    -9.9    0.000    0.000      99        0.00    0.000    0.000     235.3    235.3    1.56   148.6     658.3     181.7     181.7     115.2     115.2      38.3    0.000     0.000     0.000     0.000     0.000    1.56     0.00    0.00      0   -9.90   -9.00        9.5        9.5        9.6        9.6        9.6        9.6        9.6        9.6        9.6       11.6       11.7       11.7        0.0        0.0        0.0        0.0        0.0        0.0        0.0        0.0        0.0        0.0        0.0        0.0      2.2      14.8      19.3      26.7      34.0    391.85
    25     8  2011    56     3     236.2    17.6      0.0    0.0   17.2    0.4      0.0      0.0   -9.90      0.4      0.4    100     15.9     15.9   100     16.3    16.3     100     15.9    1.58      0      0      0      0      0    93.4    93.4      0     1.02     15.9     15.9     15.9   100    34.3     8.252    -9.9    0.000    0.000      99        0.00    0.000    0.000     236.2    236.2    1.58   151.8     666.7     184.0     184.0     119.4     119.4      38.8    0.000     0.000     0.000     0.000     0.000    1.58     0.00    0.00      0   -9.90   -9.00       23.8        6.7        6.8        6.8        9.2        9.6        9.6        9.6        9.6       11.6       11.7       11.7        0.0        0.0        0.0        0.0        0.0        0.0        0.0        0.0        0.0        0.0        0.0        0.0     17.6      15.6      17.9      26.2      34.6    391.85
    26     8  2011    57     3     231.6     8.3      0.9    0.0    8.3    0.1      0.0      0.0   -9.90      0.3      0.3    100     13.5     13.5   100     13.8    13.8     100     17.8    1.60      0      0      0      0      0    93.6    93.6      0     1.02     13.5     13.5     13.5   100    34.3     8.603    -9.9    0.000    0.000      99        0.00    0.000    0.000     231.6    231.6    1.60   150.4     675.1     186.4     186.4     112.7     112.7      39.3    0.000     0.000     0.000     0.000     0.000    1.60     0.00    0.00      0   -9.90   -9.00        9.3        9.3        9.4        9.4        9.4        9.4        9.4        9.4        9.4       11.2       11.7       11.7        0.0        0.0        0.0        0.0        0.0        0.0        0.0        0.0        0.0        0.0        0.0        0.0      8.3      13.2      21.6      27.3      33.0    391.85
    27     8  2011    58     3     235.9     3.1     18.2    0.0    3.1    0.0      0.0      0.0   -9.90      0.3      0.3    100     16.7     16.7   100     17.1    17.1     100     16.4    1.62      0      0      0      0      0    93.8    93.8      0     1.02     16.7     16.7     16.7   100    34.3     8.954     1.5    0.135    0.150      99        0.02    0.000    0.000     235.9    235.9    1.62   157.6     683.5     188.7     188.7     125.0     125.0      39.8    0.000     0.000     0.000     0.000     0.000    1.62     0.00    0.00      0   -9.90   -9.00        9.7        9.7        9.7        9.7        9.7        9.7        9.7        9.7        9.7       10.8       11.7       11.7        0.0        0.0        0.0        0.0        0.0        0.0        0.0        0.0        0.0        0.0        0.0        0.0      3.1      16.3      18.8      27.5      36.2    391.85
    28     8  2011    59     3     232.7     2.5     10.0    0.0    2.5    0.0      0.0      0.0   -9.90      0.3      0.3    100     15.4     15.4   100     15.7    15.7     100     16.9    1.64      0      0      0      0      0    93.9    93.9      0     1.02     15.4     15.4     15.4   100    34.3     9.306     1.9    0.172    0.191      99        0.02    0.000    0.000     232.7    232.7    1.64   157.2     691.8     191.0     191.0     122.1     122.1      40.3    0.000     0.000     0.000     0.000     0.000    1.64     0.00    0.00      0   -9.90   -9.00        9.6        9.6        9.6        9.6        9.6        9.6        9.6        9.6        9.6       10.4       11.7       11.7        0.0        0.0        0.0        0.0        0.0        0.0        0.0        0.0        0.0        0.0        0.0        0.0      2.5      15.1      19.9      27.4      34.8    391.85
    29     8  2011    60     3     231.4     3.4     10.7    0.0    3.4    0.0      0.0      0.0   -9.90      0.3      0.3    100     15.2     15.2   100     15.4    15.4     100     17.1    1.66      0      0      0      0      0    94.0    94.0      0     1.03     15.2     15.2     15.2   100    34.3     9.657     2.3    0.219    0.243      99        0.03    0.000    0.000     231.4    231.4    1.66   158.4     700.1     193.3     193.3     122.6     122.6      40.8    0.000     0.000     0.000     0.000     0.000    1.66     0.00    0.00      0   -9.90   -9.00        9.5        9.5        9.6        9.6        9.6        9.6        9.6        9.6        9.6       10.0       11.7       11.7        0.0        0.0        0.0        0.0        0.0        0.0        0.0        0.0        0.0        0.0        0.0        0.0      3.4      14.8      20.1      27.3      34.5    391.85
    30     8  2011    61     3     231.8     2.5     13.9    0.0    2.5    0.0      0.0      0.0   -9.90      0.2      0.2    100     15.9     15.9   100     16.0    16.0     100     16.6    1.68      0      0      0      0      0    95.3    95.3      0     1.03     15.9     15.9     15.9   100    34.3    10.012     2.8    0.276    0.307      99        0.04    0.000    0.000     231.8    231.8    1.68   161.0     708.4     195.5     195.5     126.0     126.0      41.3    0.000     0.000     0.000     0.000     0.000    1.68     0.00    0.00      0   -9.90   -9.00        9.6        9.6        9.6        9.6        9.6        9.6        9.6        9.6        9.6        9.8       11.7       11.7        0.0        0.0        0.0        0.0        0.0        0.0        0.0        0.0        0.0        0.0        0.0        0.0      2.5      15.3      19.3      27.2      35.0    391.85
    31     8  2011    62     3     232.3    13.6      3.5    0.0   13.5    0.2      0.0      0.0   -9.90      0.2      0.2    100     16.3     16.3   100     16.4    16.4     100     16.2    1.70     -9      0      0      0      0    95.4    95.4      0     1.03     16.3     16.3     16.3   100    34.3    10.365     3.4    0.348    0.387      99        0.05    0.000    0.000     232.3    232.3    1.70   163.6     716.6     197.8     197.8     129.1     129.1      41.8    0.000     0.000     0.000     0.000     0.000    1.70     0.00    0.00      0   -9.90   -9.00        9.6        9.6        9.7        9.7        9.7        9.7        9.7        9.7        9.7        9.7       11.7       11.7        0.0        0.0        0.0        0.0        0.0        0.0        0.0        0.0        0.0        0.0        0.0        0.0     13.6      15.8      18.4      26.9      35.3    391.85
     1     9  2011    63     3     229.0    10.1      0.0    0.0   10.1    0.0      0.0      0.0   -9.90      0.1      0.1    100     13.2     13.2   100     13.4    13.4     100     16.8    1.71     -9      0      0      0      0    95.5    95.5      0     1.03     13.2     13.2     13.2   100    34.3    10.718     4.1    0.437    0.486      99        0.06    0.000    0.000     229.0    229.0    1.71   162.2     724.8     200.1     200.1     119.9     119.9      42.3    0.000     0.000     0.000     0.000     0.000    1.71     0.00    0.00      0   -9.90   -9.00       17.0        6.8        6.9        8.3        9.7        9.7        9.7        9.7        9.7        9.7       11.7       11.7        0.0        0.0        0.0        0.0        0.0        0.0        0.0        0.0        0.0        0.0        0.0        0.0     10.1      12.9      19.6      25.5      31.5    391.85
     2     9  2011    64     3     229.4     2.8     12.3    0.0    2.8    0.0      0.0      0.0   -9.90      0.1      0.1    100     14.7     14.7   100     14.8    14.8     100     16.9    1.73     -9      0      0      0      0    95.6    95.6      0     1.03     14.7     14.7     14.7   100    34.3    11.070     4.9    0.546    0.607      99        0.07    0.000    0.000     229.4    229.4    1.73   164.5     732.9     202.3     202.3     126.5     126.5      42.7    0.000     0.000     0.000     0.000     0.000    1.73     0.00    0.00      0   -9.90   -9.00        9.5        9.5        9.5        9.5        9.5        9.5        9.5        9.5        9.5        9.6       11.7       11.7        0.0        0.0        0.0        0.0        0.0        0.0        0.0        0.0        0.0        0.0        0.0        0.0      2.8      14.3      19.7      26.8      33.8    391.85
     3     9  2011    65     3     228.4     6.1      7.2    0.0    6.1    0.0      0.0      0.0   -9.90      0.1      0.1    100     14.2     14.2   100     14.3    14.3     100     17.2    1.75     -9      0      0      0      0    95.6    95.6      0     1.02     14.2     14.2     14.2   100    34.3    11.422     5.9    0.679    0.755      99        0.08    0.000    0.000     228.4    228.4    1.75   165.4     741.1     204.6     204.6     126.2     126.2      43.2    0.000     0.000     0.000     0.000     0.000    1.75     0.00    0.00      0   -9.90   -9.00        9.4        9.4        9.5        9.5        9.5        9.5        9.5        9.5        9.5        9.5       11.7       11.7        0.0        0.0        0.0        0.0        0.0        0.0        0.0        0.0        0.0        0.0        0.0        0.0      6.1      13.8      20.4      27.0      33.5    391.85
     4     9  2011    66     3     229.9     1.8     14.7    0.0    1.8    0.0      0.0      0.0   -9.90      0.1      0.1    100     15.0     15.0   100     15.1    15.1     100     16.2    1.77     -9      0      0      0      0    95.7    95.7      0     1.02     15.0     15.0     15.0   100    34.3    11.772     7.1    0.840    0.933      99        0.10    0.000    0.000     229.9    229.9    1.77   168.7     749.2     206.8     206.8     130.6     130.6      43.7    0.000     0.000     0.000     0.000     0.000    1.77     0.00    0.00      0   -9.90   -9.00        9.5        9.5        9.6        9.6        9.6        9.6        9.6        9.6        9.6        9.5       11.7       11.7        0.0        0.0        0.0        0.0        0.0        0.0        0.0        0.0        0.0        0.0        0.0        0.0      1.8      14.6      18.4      26.0      33.7    391.85
     5     9  2011    67     3     230.9     1.4     15.3    0.0    1.4    0.0      0.0      0.0   -9.90      0.1      0.1    100     15.5     15.5   100     15.6    15.6     100     17.0    1.79     -9      0      0      0      0    95.7    95.7      0     1.02     15.5     15.5     15.5   100    34.3    12.122     8.5    1.031    1.145      99        0.12    0.000    0.000     230.9    230.9    1.79   171.6     757.2     209.0     209.0     134.1     134.1      44.2    0.000     0.000     0.000     0.000     0.000    1.79     0.00    0.00      0   -9.90   -9.00        9.6        9.6        9.6        9.6        9.6        9.6        9.6        9.6        9.6        9.6       11.7       11.7        0.0        0.0        0.0        0.0        0.0        0.0        0.0        0.0        0.0        0.0        0.0        0.0      1.4      15.2      20.0      27.7      35.3    391.85
     6     9  2011    68     3     228.2     1.7      9.7    0.0    1.7    0.0      0.0      0.0   -9.90      0.1      0.1    100     14.1     14.1   100     14.2    14.2     100     17.3    1.81     -9      0      0      0      0    95.8    95.8      0     1.02     14.1     14.1     14.1   100    34.3    12.471    10.0    1.251    1.390      99        0.15    0.000    0.000     228.2    228.2    1.81   171.0     765.3     211.2     211.2     130.4     130.4      44.6    0.000     0.000     0.000     0.000     0.000    1.81     0.00    0.00      0   -9.90   -9.00        9.4        9.4        9.5        9.5        9.5        9.5        9.5        9.5        9.5        9.5       11.6       11.7        0.0        0.0        0.0        0.0        0.0        0.0        0.0        0.0        0.0        0.0        0.0        0.0      1.7      13.8      20.6      27.2      33.7    391.85
     7     9  2011    69     4     228.5     6.6      8.4    0.0    6.6    0.0      0.0      0.0   -9.90      0.1      0.1    100     14.5     14.5   100     14.6    14.6     100     17.1    1.83     -9      0      0      0      0    95.8    95.8      0     1.01     14.5     14.5     14.5   100    34.3    12.819    11.6    1.481    1.646      99        0.17    0.000    0.000     228.5    228.5    1.83   174.1     773.3     213.5     213.5     133.7     133.7      45.1    0.000     0.000     0.000     0.000     0.000    1.83     0.00    0.00      0   -9.90   -9.00        9.5        9.5        9.5        9.5        9.5        9.5        9.5        9.5        9.5        9.5       11.4       11.7        0.0        0.0        0.0        0.0        0.0        0.0        0.0        0.0        0.0        0.0        0.0        0.0      6.6      14.3      20.2      27.2      34.3    391.85
     8     9  2011    70     4     231.8    17.1      0.0    0.0   16.7    0.4      0.0      0.0   -9.90      0.1      0.1    100     13.3     13.3   100     13.4    13.4     100     17.5    1.85     -9      0      0      0      0    95.8    95.8      0     1.01     13.3     13.3     13.3   100    34.3    13.166    13.1    1.722    1.914      99        0.20    0.000    0.000     231.8    231.8    1.85   179.6     781.3     215.7     215.7     130.5     130.5      45.6    0.000     0.000     0.000     0.000     0.000    1.85     0.00    0.00      0   -9.90   -9.00       23.6        6.6        6.7        8.1        9.5        9.5        9.5        9.5        9.5        9.5       11.4       11.7        0.0        0.0        0.0        0.0        0.0        0.0        0.0        0.0        0.0        0.0        0.0        0.0     17.1      13.2      21.0      27.0      33.1    391.85
     9     9  2011    71     4     227.6     6.5      4.1    0.0    6.4    0.0      0.0      0.0   -9.90      0.1      0.1    100     14.7     14.7   100     14.7    14.7     100     17.2    1.87     -9      0      0      0      0    95.9    95.9      0     1.01     14.7     14.7     14.7   100    34.3    13.512    14.6    1.974    2.193      99        0.22    0.000    0.000     227.6    227.6    1.87   178.4     789.2     217.9     217.9     137.2     137.2      46.1    0.000     0.000     0.000     0.000     0.000    1.87     0.00    0.00      0   -9.90   -9.00        9.5        9.5        9.5        9.5        9.5        9.5        9.5        9.5        9.5        9.5       10.9       11.7        0.0        0.0        0.0        0.0        0.0        0.0        0.0        0.0        0.0        0.0        0.0        0.0      6.5      14.5      20.5      27.6      34.8    391.85
    10     9  2011    72     4     226.2     3.8      9.4    0.0    3.8    0.0      0.0      0.0   -9.90      0.1      0.1    100     14.5     14.5   100     14.6    14.6     100     16.7    1.89     -9      0      0      0      0    95.9    95.9      0     1.01     14.5     14.5     14.5   100    34.3    13.857    16.1    2.235    2.484      99        0.25    0.000    0.000     226.2    226.2    1.89   179.8     797.2     220.0     220.0     138.0     138.0      46.5    0.000     0.000     0.000     0.000     0.000    1.89     0.00    0.00      0   -9.90   -9.00        9.5        9.5        9.5        9.5        9.5        9.5        9.5        9.5        9.5        9.5       10.4       11.7        0.0        0.0        0.0        0.0        0.0        0.0        0.0        0.0        0.0        0.0        0.0        0.0      3.8      14.4      19.4      26.7      34.1    391.85
    11     9  2011    73     4     224.9     9.1      3.9    0.0    9.1    0.0      0.0      0.0   -9.90      0.1      0.1    100     14.2     14.2   100     14.3    14.3     100     16.5    1.90     -9      0      0      0      0    95.9    95.9      0     1.00     14.2     14.2     14.2   100    34.3    14.201    17.7    2.508    2.786      99        0.27    0.000    0.000     224.9    224.9    1.90   180.9     805.1     222.2     222.2     138.5     138.5      47.0    0.000     0.000     0.000     0.000     0.000    1.90     0.00    0.00      0   -9.90   -9.00        9.5        9.5        9.5        9.5        9.5        9.5        9.5        9.5        9.5        9.5       10.0       11.7        0.0        0.0        0.0        0.0        0.0        0.0        0.0        0.0        0.0        0.0        0.0        0.0      9.1      14.2      18.9      26.2      33.5    391.85
    12     9  2011    74     4     221.5     4.3      5.2    0.0    4.3    0.0      0.0      0.0   -9.90      0.1      0.1    100     12.8     12.8   100     12.9    12.9     100     17.5    1.92     -9      0      0      0      0    95.9    95.9      0     1.00     12.8     12.8     12.8   100    34.3    14.544    19.2    2.790    3.100      99        0.30    0.000    0.000     221.5    221.5    1.92   179.8     813.0     224.4     224.4     134.4     134.4      47.5    0.000     0.000     0.000     0.000     0.000    1.92     0.00    0.00      0   -9.90   -9.00        9.3        9.3        9.4        9.4        9.4        9.4        9.4        9.4        9.4        9.4        9.7       11.7        0.0        0.0        0.0        0.0        0.0        0.0        0.0        0.0        0.0        0.0        0.0        0.0      4.3      12.8      21.1      26.9      32.7    391.85
    13     9  2011    75     4     222.6     6.1      8.7    0.0    6.1    0.0      0.0      0.0   -9.90      0.1      0.1    100     13.6     13.6   100     13.7    13.7     100     16.7    1.94     -9      0      0      0      0    95.9    95.9      0     1.00     13.6     13.6     13.6   100    34.3    14.886    20.7    3.083    3.425      99        0.32    0.000    0.000     222.6    222.6    1.94   182.9     820.8     226.6     226.6     138.9     138.9      47.9    0.000     0.000     0.000     0.000     0.000    1.94     0.00    0.00      0   -9.90   -9.00        9.4        9.4        9.4        9.4        9.4        9.4        9.4        9.4        9.4        9.4        9.6       11.7        0.0        0.0        0.0        0.0        0.0        0.0        0.0        0.0        0.0        0.0        0.0        0.0      6.1      13.6      19.4      26.2      33.0    391.85
    14     9  2011    76     4     220.2     6.0      4.1    0.0    6.0    0.0      0.0      0.0   -9.90      0.1      0.1    100     12.4     12.4   100     12.5    12.5     100     17.4    1.96     -9      0     -9      0      0    95.3    95.3      0     0.98     12.4     12.4     12.4   100    34.3    15.224    22.2    3.385    3.761      99        0.35    0.000    0.000     220.2    220.2    1.96   182.4     828.6     228.7     228.7     135.9     135.9      48.4    0.000     0.000     0.000     0.000     0.000    1.96     0.00    0.00      0   -9.90   -9.00        9.3        9.3        9.3        9.3        9.3        9.3        9.3        9.3        9.3        9.3        9.4       11.7        0.0        0.0        0.0        0.0        0.0        0.0        0.0        0.0        0.0        0.0        0.0        0.0      6.0      12.6      20.7      26.5      32.2    391.85
    15     9  2011    77     4     225.5     1.4     18.7    0.0    1.4    0.0      0.0      0.0   -9.90      0.2      0.2    100     14.7     14.7   100     14.9    14.9     100     16.6    1.98     -9      0     -9      0      0    94.6    94.6      0     0.97     14.7     14.7     14.7   100    34.3    15.557    23.8    3.697    4.107      99        0.38    0.000    0.000     225.5    225.5    1.98   189.3     836.4     230.9     230.9     148.0     148.0      48.8    0.000     0.000     0.000     0.000     0.000    1.98     0.00    0.00      0   -9.90   -9.00        9.6        9.6        9.6        9.6        9.6        9.6        9.6        9.6        9.6        9.6        9.5       11.7        0.0        0.0        0.0        0.0        0.0        0.0        0.0        0.0        0.0        0.0        0.0        0.0      1.4      15.1      19.3      27.3      35.4    391.85
    16     9  2011    78     4     223.5     5.7      6.2    0.0    5.7    0.0      0.0      0.0   -9.90      0.3      0.3    100     13.5     13.5   100     13.8    13.8     100     16.9    2.00     -9      0     -9      0      0    93.9    93.9      0     0.96     13.5     13.5     13.5   100    34.3    15.885    25.3    4.017    4.463      99        0.41    0.000    0.000     223.5    223.5    2.00   189.2     844.2     233.0     233.0     145.3     145.3      49.3    0.000     0.000     0.000     0.000     0.000    2.00     0.00    0.00      0   -9.90   -9.00        9.5        9.5        9.5        9.5        9.5        9.5        9.5        9.5        9.5        9.5        9.5       11.7        0.0        0.0        0.0        0.0        0.0        0.0        0.0        0.0        0.0        0.0        0.0        0.0      5.7      14.2      19.9      27.1      34.3    391.85
    17     9  2011    79     4     224.9     5.3     10.4    0.0    5.3    0.0      0.0      0.0   -9.90      0.4      0.4    100     13.9     13.9   100     14.3    14.3     100     16.4    2.01     -9      0     -9      0      0    93.0    93.0      0     0.94     13.9     13.9     13.9   100    34.3    16.206    26.8    4.345    4.828      99        0.43    0.000    0.000     224.9    224.9    2.01   192.3     852.0     235.2     235.2     149.4     149.4      49.8    0.000     0.000     0.000     0.000     0.000    2.01     0.00    0.00      0   -9.90   -9.00        9.5        9.5        9.6        9.6        9.6        9.6        9.6        9.6        9.6        9.6        9.6       11.7        0.0        0.0        0.0        0.0        0.0        0.0        0.0        0.0        0.0        0.0        0.0        0.0      5.3      14.8      18.8      26.8      34.8    391.85
    18     9  2011    80     4     223.3     8.1      3.7    0.0    8.1    0.0      0.0      0.0   -9.90      0.5      0.5    100     12.9     12.9   100     13.4    13.4     100     16.5    2.03     -9      0     -9      0      0    92.0    92.0      0     0.92     12.9     12.9     12.9   100    34.3    16.522    28.3    4.682    5.202      99        0.46    0.000    0.000     223.3    223.3    2.03   192.4     859.7     237.3     237.3     147.4     147.4      50.2    0.000     0.000     0.000     0.000     0.000    2.03     0.00    0.00      0   -9.90   -9.00        9.4        9.4        9.5        9.5        9.5        9.5        9.5        9.5        9.5        9.5        9.5       11.7        0.0        0.0        0.0        0.0        0.0        0.0        0.0        0.0        0.0        0.0        0.0        0.0      8.1      14.1      19.0      26.4      33.8    391.85
    19     9  2011    81     4     237.7    29.8      0.0    0.0   27.5    2.2      0.0      0.0   -9.90      0.5      0.5    100     12.6     12.6   100     13.1    13.1     100     16.8    2.05     -9      0     -9      0      0    90.9    90.9      0     0.90     12.6     12.6     12.6   100    34.3    16.830    29.9    5.026    5.585      99        0.49    0.000    0.000     237.7    237.7    2.05   208.5     867.4     239.4     239.4     148.4     148.4      50.7    0.000     0.000     0.000     0.000     0.000    2.05     0.00    0.00      0   -9.90   -9.00       34.1        6.6        6.7        8.6        9.5        9.5        9.5        9.5        9.5        9.5        9.5       11.7        0.0        0.0        0.0        0.0        0.0        0.0        0.0        0.0        0.0        0.0        0.0        0.0     29.8      14.0      19.5      26.7      34.0    391.85
    20     9  2011    82     4     228.0     2.3      0.0    0.0    2.3    0.0      0.0      0.0   -9.90      0.6      0.6    100     11.4     11.4   100     12.0    12.0     100     17.2    2.07     -9      0     -9      0      0    89.6    89.6      0     0.88     11.4     11.4     11.4   100    34.3    17.131    31.4    5.377    5.975      99        0.51    0.000    0.000     228.0    228.0    2.07   200.9     875.1     241.5     241.5     145.5     145.5      51.1    0.000     0.000     0.000     0.000     0.000    2.07     0.00    0.00      0   -9.90   -9.00       10.9        9.8        9.6       11.2        9.5        9.5        9.5        9.5        9.5        9.5        9.5       11.7        0.0        0.0        0.0        0.0        0.0        0.0        0.0        0.0        0.0        0.0        0.0        0.0      2.3      13.0      20.5      26.7      33.0    391.85
    21     9  2011    83     4     221.5     2.2      3.8    0.0    2.2    0.0      0.0      0.0   -9.90      0.8      0.8    100     11.6     11.6   100     12.4    12.4     100     17.0    2.09     -9      0     -9      0      0    88.2    88.2      0     0.85     11.6     11.6     11.6   100    34.3    17.423    32.9    5.735    6.372      99        0.54    0.000    0.000     221.5    221.5    2.09   197.3     882.8     243.7     243.7     149.6     149.6      51.6    0.000     0.000     0.000     0.000     0.000    2.09     0.00    0.00      0   -9.90   -9.00        9.4        9.4        9.4        9.4        9.4        9.4        9.4        9.4        9.4        9.4        9.4       11.4        0.0        0.0        0.0        0.0        0.0        0.0        0.0        0.0        0.0        0.0        0.0        0.0      2.2      13.7      20.1      27.0      33.9    391.85
    22     9  2011    84     4     221.6     6.2      6.4    0.0    6.2    0.0      0.0      0.0   -9.90      0.9      0.9    100     11.7     11.7   100     12.6    12.6     100     17.1    2.10     -9      0     -9      0      0    86.6    86.6      0     0.83     11.7     11.7     11.7   100    34.3    17.706    34.4    6.098    6.776      99        0.57    0.000    0.000     221.6    221.6    2.10   200.2     890.4     245.8     245.8     153.0     153.0      52.0    0.000     0.000     0.000     0.000     0.000    2.10     0.00    0.00      0   -9.90   -9.00        9.5        9.5        9.5        9.5        9.5        9.5        9.5        9.5        9.5        9.5        9.5       11.0        0.0        0.0        0.0        0.0        0.0        0.0        0.0        0.0        0.0        0.0        0.0        0.0      6.2      14.1      20.2      27.4      34.7    391.85
    23     9  2011    85     4     220.1    10.3      0.4    0.0   10.2    0.0      0.0      0.0   -9.90      1.1      1.1    100     11.1     11.1   100     12.1    12.1     100     16.9    2.12     -9      0     -9      0      0    84.8    84.8      0     0.80     11.1     11.1     11.1   100    34.3    17.979    36.0    6.467    7.185      99        0.60    0.000    0.000     220.1    220.1    2.12   201.4     898.0     247.9     247.9     153.4     153.4      52.5    0.000     0.000     0.000     0.000     0.000    2.12     0.00    0.00      0   -9.90   -9.00        9.4        9.4        9.5        9.5        9.5        9.5        9.5        9.5        9.5        9.5        9.5       10.5        0.0        0.0        0.0        0.0        0.0        0.0        0.0        0.0        0.0        0.0        0.0        0.0     10.3      13.9      19.8      27.1      34.3    391.85
    24     9  2011    86     4     215.8     3.4      3.0    0.0    3.4    0.0      0.0      0.0   -9.90      1.1      1.1    100      9.5      9.5   100     10.6    10.6     100     17.9    2.14     -9      0     -9      0      0    82.8    82.8      0     0.76      9.5      9.5      9.5   100    34.3    18.240    37.5    6.839    7.599      99        0.63    0.000    0.000     215.8    215.8    2.14   199.8     905.6     250.0     250.0     148.2     148.2      52.9    0.000     0.000     0.000     0.000     0.000    2.14     0.00    0.00      0   -9.90   -9.00        9.3        9.3        9.3        9.3        9.3        9.3        9.3        9.3        9.3        9.3        9.3       10.1        0.0        0.0        0.0        0.0        0.0        0.0        0.0        0.0        0.0        0.0        0.0        0.0      3.4      12.5      21.8      27.5      33.2    391.85
    25     9  2011    87     4     220.6     1.4     15.8    0.0    1.4    0.0      0.0      0.0   -9.90      1.5      1.5    100     10.9     10.9   100     12.3    12.3     100     17.0    2.16     -9      0     -9      0      0    80.5    80.5      0     0.73     10.9     10.9     10.9   100    34.3    18.490    39.0    7.215    8.016      99        0.65    0.000    0.000     220.6    220.6    2.16   206.7     913.2     252.1     252.1     160.7     160.7      53.4    0.000     0.000     0.000     0.000     0.000    2.16     0.00    0.00      0   -9.90   -9.00        9.5        9.5        9.6        9.6        9.6        9.6        9.6        9.6        9.6        9.6        9.6        9.9        0.0        0.0        0.0        0.0        0.0        0.0        0.0        0.0        0.0        0.0        0.0        0.0      1.4      14.9      20.0      28.1      36.1    391.85
[...]
    10    12  2015    -9     0     223.3     6.5      0.0    0.0    6.5    0.0      0.0      0.0   -9.90     12.1      8.6     72      0.0      0.0   100     12.1     8.6      72     16.8    2.28     -9     -9     -9      0     -9     0.0     0.0      0    -9.00      0.0      0.0      0.0   100    34.5    19.786    48.2    9.532   10.591      99        0.82    0.000    0.000     223.3    223.3    2.28   221.7     965.7     266.5     266.5     150.6     162.9      56.5    0.000     0.000     0.000     0.000     0.000    2.28     0.00    0.00      0   -9.90   -9.00        9.7       11.1       11.7       11.3        9.3        9.3        9.3        9.3        9.3        9.3        9.3        9.3        0.0        0.0        0.0        0.0        0.0        0.0        0.0        0.0        0.0        0.0        0.0        0.0      6.5      11.0      19.7      26.9      34.0    401.01
    11    12  2015    -9     0     229.0    15.0      0.0    0.0   14.6    0.3      0.0      0.0   -9.90     11.5      8.9     78      0.0      0.0   100     11.5     8.9      78     17.1    2.28     -9     -9     -9      0     -9     0.0     0.0      0    -9.00      0.0      0.0      0.0   100    34.5    19.786    48.2    9.532   10.591      99        0.82    0.000    0.000     229.0    229.0    2.28   227.4     965.7     266.5     266.5     148.0     162.9      56.5    0.000     0.000     0.000     0.000     0.000    2.28     0.00    0.00      0   -9.90   -9.00       15.5       11.1       11.7       11.3        9.3        9.3        9.3        9.3        9.3        9.3        9.3        9.3        0.0        0.0        0.0        0.0        0.0        0.0        0.0        0.0        0.0        0.0        0.0        0.0     15.0      10.4      20.1      26.7      33.2    401.01
    12    12  2015    -9     0     226.2     5.6      0.0    0.0    5.6    0.0      0.0      0.0   -9.90     11.7      8.4     72      0.0      0.0   100     11.7     8.4      72     17.1    2.28     -9     -9     -9      0     -9     0.0     0.0      0    -9.00      0.0      0.0      0.0   100    34.5    19.786    48.2    9.532   10.591      99        0.82    0.000    0.000     226.2    226.2    2.28   224.6     965.7     266.5     266.5     149.1     162.9      56.5    0.000     0.000     0.000     0.000     0.000    2.28     0.00    0.00      0   -9.90   -9.00        9.3       11.9       12.0       11.8        9.9        9.3        9.3        9.3        9.3        9.3        9.3        9.3        0.0        0.0        0.0        0.0        0.0        0.0        0.0        0.0        0.0        0.0        0.0        0.0      5.6      10.7      20.2      27.0      33.7    401.01
    13    12  2015    -9     0     222.2     4.1      0.0    0.0    4.1    0.0      0.0      0.0   -9.90     12.4      8.1     65      0.0      0.0   100     12.4     8.1      65     17.2    2.28     -9     -9     -9      0     -9     0.0     0.0      0    -9.00      0.0      0.0      0.0   100    34.5    19.786    48.2    9.532   10.591      99        0.82    0.000    0.000     222.2    222.2    2.28   220.6     965.7     266.5     266.5     152.0     162.9      56.5    0.000     0.000     0.000     0.000     0.000    2.28     0.00    0.00      0   -9.90   -9.00        5.2       11.7       11.8       11.7       10.3        9.3        9.3        9.3        9.3        9.3        9.3        9.3        0.0        0.0        0.0        0.0        0.0        0.0        0.0        0.0        0.0        0.0        0.0        0.0      4.1      11.3      20.5      27.8      35.1    401.01
    14    12  2015    -9     0     236.1    22.8      0.0    0.0   22.6    0.2      0.0      0.0   -9.90     10.7      8.7     82      0.0      0.0   100     10.7     8.7      82     17.2    2.28     -9     -9     -9      0     -9     0.0     0.0      0    -9.00      0.0      0.0      0.0   100    34.5    19.786    48.2    9.532   10.591      99        0.82    0.000    0.000     236.1    236.1    2.28   234.5     965.7     266.5     266.5     144.4     162.9      56.5    0.000     0.000     0.000     0.000     0.000    2.28     0.00    0.00      0   -9.90   -9.00       19.4       11.7       11.7       11.7       10.4        9.3        9.3        9.3        9.3        9.3        9.3        9.3        0.0        0.0        0.0        0.0        0.0        0.0        0.0        0.0        0.0        0.0        0.0        0.0     22.8       9.7      20.5      26.3      32.0    401.01
    15    12  2015    -9     0     238.0    10.8      0.0    0.0   10.5    0.3      0.0      0.0   -9.90     11.3      8.7     77      0.0      0.0   100     11.3     8.7      77     17.2    2.28     -9     -9     -9      0     -9     0.0     0.0      0    -9.00      0.0      0.0      0.0   100    34.5    19.786    48.2    9.532   10.591      99        0.82    0.000    0.000     238.0    238.0    2.28   236.3     965.7     266.5     266.5     147.0     162.9      56.5    0.000     0.000     0.000     0.000     0.000    2.28     0.00    0.00      0   -9.90   -9.00       14.5       12.3       12.4       12.1       11.9       10.3        9.3        9.3        9.3        9.3        9.3        9.3        0.0        0.0        0.0        0.0        0.0        0.0        0.0        0.0        0.0        0.0        0.0        0.0     10.8      10.2      20.3      26.7      33.0    401.01
    16    12  2015    -9     0     237.4     8.3      0.0    0.0    8.2    0.1      0.0      0.0   -9.90     12.1      8.8     73      0.0      0.0   100     12.1     8.8      73     16.8    2.28     -9     -9     -9      0     -9     0.0     0.0      0    -9.00      0.0      0.0      0.0   100    34.5    19.786    48.2    9.532   10.591      99        0.82    0.000    0.000     237.4    237.4    2.28   235.7     965.7     266.5     266.5     150.7     162.9      56.5    0.000     0.000     0.000     0.000     0.000    2.28     0.00    0.00      0   -9.90   -9.00       11.5       12.0       12.0       12.0       11.9       11.8        9.6        9.3        9.3        9.3        9.3        9.3        0.0        0.0        0.0        0.0        0.0        0.0        0.0        0.0        0.0        0.0        0.0        0.0      8.3      11.0      19.7      26.9      34.1    401.01
    17    12  2015    -9     0     232.7     3.2      0.0    0.0    3.2    0.0      0.0      0.0   -9.90     12.6      7.9     63      0.0      0.0   100     12.6     7.9      63     15.9    2.28     -9     -9     -9      0     -9     0.0     0.0      0    -9.00      0.0      0.0      0.0   100    34.5    19.786    48.2    9.532   10.591      99        0.82    0.000    0.000     232.7    232.7    2.28   231.1     965.7     266.5     266.5     152.9     162.9      56.5    0.000     0.000     0.000     0.000     0.000    2.28     0.00    0.00      0   -9.90   -9.00        6.7       11.7       11.8       11.8       11.8       11.8       10.3        9.3        9.3        9.3        9.3        9.3        0.0        0.0        0.0        0.0        0.0        0.0        0.0        0.0        0.0        0.0        0.0        0.0      3.2      11.4      17.7      25.9      34.1    401.01
    18    12  2015    -9     0     229.8     4.6      0.0    0.0    4.6    0.0      0.0      0.0   -9.90     11.5      7.5     65      0.0      0.0   100     11.5     7.5      65     17.2    2.28     -9     -9     -9      0     -9     0.0     0.0      0    -9.00      0.0      0.0      0.0   100    34.5    19.786    48.2    9.532   10.591      99        0.82    0.000    0.000     229.8    229.8    2.28   228.2     965.7     266.5     266.5     147.9     162.9      56.5    0.000     0.000     0.000     0.000     0.000    2.28     0.00    0.00      0   -9.90   -9.00        3.8       11.7       11.7       11.7       11.7       11.7       10.5        9.3        9.3        9.3        9.3        9.3        0.0        0.0        0.0        0.0        0.0        0.0        0.0        0.0        0.0        0.0        0.0        0.0      4.6      10.4      20.4      26.9      33.4    401.01
    19    12  2015    -9     0     229.8     7.3      0.0    0.0    7.3    0.0      0.0      0.0   -9.90     11.2      7.3     65      0.0      0.0   100     11.2     7.3      65     17.1    2.28     -9     -9     -9      0     -9     0.0     0.0      0    -9.00      0.0      0.0      0.0   100    34.5    19.786    48.2    9.532   10.591      99        0.82    0.000    0.000     229.8    229.8    2.28   228.2     965.7     266.5     266.5     146.6     162.9      56.5    0.000     0.000     0.000     0.000     0.000    2.28     0.00    0.00      0   -9.90   -9.00        3.8       11.7       11.7       11.7       11.7       11.7       10.5        9.3        9.3        9.3        9.3        9.3        0.0        0.0        0.0        0.0        0.0        0.0        0.0        0.0        0.0        0.0        0.0        0.0      7.3      10.2      20.2      26.5      32.8    401.01
    20    12  2015    -9     0     228.8     4.8      0.0    0.0    4.8    0.0      0.0      0.0   -9.90     11.4      5.8     51      0.0      0.0   100     11.4     5.8      51     17.2    2.28     -9     -9     -9      0     -9     0.0     0.0      0    -9.00      0.0      0.0      0.0   100    34.5    19.786    48.2    9.532   10.591      99        0.82    0.000    0.000     228.8    228.8    2.28   227.2     965.7     266.5     266.5     147.7     162.9      56.5    0.000     0.000     0.000     0.000     0.000    2.28     0.00    0.00      0   -9.90   -9.00        2.7       11.7       11.7       11.7       11.7       11.7       10.5        9.3        9.3        9.3        9.3        9.3        0.0        0.0        0.0        0.0        0.0        0.0        0.0        0.0        0.0        0.0        0.0        0.0      4.8      10.4      20.4      26.9      33.3    401.01
    21    12  2015    -9     0     228.7     5.8      0.0    0.0    5.8    0.0      0.0      0.0   -9.90     11.9      5.9     49      0.0      0.0   100     11.9     5.9      49     17.7    2.28     -9     -9     -9      0     -9     0.0     0.0      0    -9.00      0.0      0.0      0.0   100    34.5    19.786    48.2    9.532   10.591      99        0.82    0.000    0.000     228.7    228.7    2.28   227.0     965.7     266.5     266.5     149.7     162.9      56.5    0.000     0.000     0.000     0.000     0.000    2.28     0.00    0.00      0   -9.90   -9.00        2.6       11.7       11.7       11.7       11.7       11.7       10.5        9.3        9.3        9.3        9.3        9.3        0.0        0.0        0.0        0.0        0.0        0.0        0.0        0.0        0.0        0.0        0.0        0.0      5.8      10.8      21.4      28.0      34.6    401.01
    22    12  2015    -9     0     227.2     0.2      0.0    0.0    0.2    0.0      0.0      0.0   -9.90     11.9      1.7     14      0.0      0.0   100     11.9     1.7      14     17.0    2.28     -9     -9     -9      0     -9     0.0     0.0      0    -9.00      0.0      0.0      0.0   100    34.5    19.786    48.2    9.532   10.591      99        0.82    0.000    0.000     227.2    227.2    2.28   225.6     965.7     266.5     266.5     150.1     162.9      56.5    0.000     0.000     0.000     0.000     0.000    2.28     0.00    0.00      0   -9.90   -9.00        1.2       11.7       11.7       11.7       11.7       11.7       10.5        9.3        9.3        9.3        9.3        9.3        0.0        0.0        0.0        0.0        0.0        0.0        0.0        0.0        0.0        0.0        0.0        0.0      0.2      10.9      19.9      27.0      34.0    401.01
    23    12  2015    -9     0     226.8     4.4      0.0    0.0    4.4    0.0      0.0      0.0   -9.90     12.9      4.9     38      0.0      0.0   100     12.9     4.9      38     16.2    2.28     -9     -9     -9      0     -9     0.0     0.0      0    -9.00      0.0      0.0      0.0   100    34.5    19.786    48.2    9.532   10.591      99        0.82    0.000    0.000     226.8    226.8    2.28   225.1     965.7     266.5     266.5     154.3     162.9      56.5    0.000     0.000     0.000     0.000     0.000    2.28     0.00    0.00      0   -9.90   -9.00        1.2       11.4       11.7       11.7       11.7       11.7       10.5        9.3        9.3        9.3        9.3        9.3        0.0        0.0        0.0        0.0        0.0        0.0        0.0        0.0        0.0        0.0        0.0        0.0      4.4      11.7      18.5      26.8      35.0    401.01
    24    12  2015    -9     0     226.0     3.0      0.0    0.0    3.0    0.0      0.0      0.0   -9.90     12.4      3.8     30      0.0      0.0   100     12.4     3.8      30     16.7    2.28     -9     -9     -9      0     -9     0.0     0.0      0    -9.00      0.0      0.0      0.0   100    34.5    19.786    48.2    9.532   10.591      99        0.82    0.000    0.000     226.0    226.0    2.28   224.3     965.7     266.5     266.5     152.3     162.9      56.5    0.000     0.000     0.000     0.000     0.000    2.28     0.00    0.00      0   -9.90   -9.00        1.2       10.9       11.7       11.7       11.7       11.7       10.5        9.3        9.3        9.3        9.3        9.3        0.0        0.0        0.0        0.0        0.0        0.0        0.0        0.0        0.0        0.0        0.0        0.0      3.0      11.3      19.4      27.0      34.6    401.01
    25    12  2015    -9     0     225.3     2.8      0.0    0.0    2.8    0.0      0.0      0.0   -9.90     11.5      3.5     30      0.0      0.0   100     11.5     3.5      30     16.6    2.28     -9     -9     -9      0     -9     0.0     0.0      0    -9.00      0.0      0.0      0.0   100    34.5    19.786    48.2    9.532   10.591      99        0.82    0.000    0.000     225.3    225.3    2.28   223.7     965.7     266.5     266.5     148.3     162.9      56.5    0.000     0.000     0.000     0.000     0.000    2.28     0.00    0.00      0   -9.90   -9.00        1.2       10.4       11.7       11.7       11.7       11.7       10.5        9.3        9.3        9.3        9.3        9.3        0.0        0.0        0.0        0.0        0.0        0.0        0.0        0.0        0.0        0.0        0.0        0.0      2.8      10.5      19.2      26.0      32.9    401.01
    26    12  2015    -9     0     224.7     2.1      0.0    0.0    2.1    0.0      0.0      0.0   -9.90     10.9      2.8     26      0.0      0.0   100     10.9     2.8      26     17.5    2.28     -9     -9     -9      0     -9     0.0     0.0      0    -9.00      0.0      0.0      0.0   100    34.5    19.786    48.2    9.532   10.591      99        0.82    0.000    0.000     224.7    224.7    2.28   223.1     965.7     266.5     266.5     145.4     162.9      56.5    0.000     0.000     0.000     0.000     0.000    2.28     0.00    0.00      0   -9.90   -9.00        1.2       10.0       11.7       11.7       11.7       11.7       10.5        9.3        9.3        9.3        9.3        9.3        0.0        0.0        0.0        0.0        0.0        0.0        0.0        0.0        0.0        0.0        0.0        0.0      2.1       9.9      21.0      26.8      32.7    401.01
    27    12  2015    -9     0     227.7    10.5      0.0    0.0   10.5    0.0      0.0      0.0   -9.90     12.8      7.5     59      0.0      0.0   100     12.8     7.5      59     17.1    2.28     -9     -9     -9      0     -9     0.0     0.0      0    -9.00      0.0      0.0      0.0   100    34.5    19.786    48.2    9.532   10.591      99        0.82    0.000    0.000     227.7    227.7    2.28   226.0     965.7     266.5     266.5     153.9     162.9      56.5    0.000     0.000     0.000     0.000     0.000    2.28     0.00    0.00      0   -9.90   -9.00        4.2       10.0       11.7       11.7       11.7       11.7       10.5        9.3        9.3        9.3        9.3        9.3        0.0        0.0        0.0        0.0        0.0        0.0        0.0        0.0        0.0        0.0        0.0        0.0     10.5      11.7      20.2      27.9      35.6    401.01
    28    12  2015    -9     0     226.6     4.5      0.0    0.0    4.5    0.0      0.0      0.0   -9.90     12.0      5.6     46      0.0      0.0   100     12.0     5.6      46     17.0    2.28     -9     -9     -9      0     -9     0.0     0.0      0    -9.00      0.0      0.0      0.0   100    34.5    19.786    48.2    9.532   10.591      99        0.82    0.000    0.000     226.6    226.6    2.28   225.0     965.7     266.5     266.5     150.4     162.9      56.5    0.000     0.000     0.000     0.000     0.000    2.28     0.00    0.00      0   -9.90   -9.00        3.1       10.0       11.7       11.7       11.7       11.7       10.5        9.3        9.3        9.3        9.3        9.3        0.0        0.0        0.0        0.0        0.0        0.0        0.0        0.0        0.0        0.0        0.0        0.0      4.5      10.9      20.0      27.0      34.0    401.01
    29    12  2015    -9     0     225.6     2.2      0.0    0.0    2.2    0.0      0.0      0.0   -9.90     10.7      3.2     30      0.0      0.0   100     10.7     3.2      30     17.4    2.28     -9     -9     -9      0     -9     0.0     0.0      0    -9.00      0.0      0.0      0.0   100    34.5    19.786    48.2    9.532   10.591      99        0.82    0.000    0.000     225.6    225.6    2.28   224.0     965.7     266.5     266.5     144.8     162.9      56.5    0.000     0.000     0.000     0.000     0.000    2.28     0.00    0.00      0   -9.90   -9.00        2.1       10.0       11.7       11.7       11.7       11.7       10.5        9.3        9.3        9.3        9.3        9.3        0.0        0.0        0.0        0.0        0.0        0.0        0.0        0.0        0.0        0.0        0.0        0.0      2.2       9.8      20.9      26.6      32.3    401.01
    30    12  2015    -9     0     224.8     2.8      0.0    0.0    2.8    0.0      0.0      0.0   -9.90     12.1      3.6     30      0.0      0.0   100     12.1     3.6      30     17.1    2.28     -9     -9     -9      0     -9     0.0     0.0      0    -9.00      0.0      0.0      0.0   100    34.5    19.786    48.2    9.532   10.591      99        0.82    0.000    0.000     224.8    224.8    2.28   223.2     965.7     266.5     266.5     150.9     162.9      56.5    0.000     0.000     0.000     0.000     0.000    2.28     0.00    0.00      0   -9.90   -9.00        1.3       10.0       11.7       11.7       11.7       11.7       10.5        9.3        9.3        9.3        9.3        9.3        0.0        0.0        0.0        0.0        0.0        0.0        0.0        0.0        0.0        0.0        0.0        0.0      2.8      11.0      20.1      27.2      34.3    401.01
    31    12  2015    -9     0     226.0     6.3      0.0    0.0    6.3    0.0      0.0      0.0   -9.90     11.7      5.1     44      0.0      0.0   100     11.7     5.1      44     16.9    2.28     -9     -9     -9      0     -9     0.0     0.0      0    -9.00      0.0      0.0      0.0   100    34.5    19.786    48.2    9.532   10.591      99        0.82    0.000    0.000     226.0    226.0    2.28   224.4     965.7     266.5     266.5     149.0     162.9      56.5    0.000     0.000     0.000     0.000     0.000    2.28     0.00    0.00      0   -9.90   -9.00        2.5       10.0       11.7       11.7       11.7       11.7       10.5        9.3        9.3        9.3        9.3        9.3        0.0        0.0        0.0        0.0        0.0        0.0        0.0        0.0        0.0        0.0        0.0        0.0      6.3      10.6      19.8      26.6      33.3    401.01
