AquaCrop 7.1 (August 2023) - Output created on (date) : 16-01-2026   at (time) : 12:17:21

    RunNr     Day1   Month1    Year1     Rain      ETo       GD     CO2      Irri   Infilt   Runoff    Drain   Upflow        E     E/Ex       Tr      TrW   Tr/Trx    SaltIn   SaltOut    SaltUp  SaltProf     Cycle   SaltStr  FertStr  WeedStr  TempStr   ExpStr   StoStr  BioMass  Brelative   HI    Y(dry)  Y(fresh)    WPet      Bin     Bout     DayN   MonthN    YearN
                                           mm       mm  degC.day    ppm        mm       mm       mm       mm       mm       mm        %       mm       mm        %    ton/ha    ton/ha    ton/ha    ton/ha      days       %        %        %        %        %        %    ton/ha        %       %    ton/ha   ton/ha    kg/m3   ton/ha   ton/ha
   Tot(1)        1        7     2011   1128.9   2398.0   3133.0   391.85    546.4   1123.5      5.4      0.0      0.0    889.6       53    829.2    829.2      100     0.000     0.000     0.000     0.000       89        0       30        0        0        0        0    19.882      100     48.2    9.578   10.642     0.81    0.000    0.000       31       12     2011  cluster_258.PRM
   Tot(2)        1        7     2012   1087.5   2399.5   3121.8   394.06    575.7   1085.0      2.5      0.0      0.0    881.3       52    826.7    826.7      100     0.000     0.000     0.000     0.000       89        0       30        0        0        1        0    19.865       99     48.2    9.570   10.634     0.83    0.000    0.000       31       12     2012  cluster_258.PRM
   Tot(3)        1        7     2013   1130.8   2405.5   3133.3   396.74    547.4   1126.0      4.8      0.0      0.0    895.0       53    823.8    823.8      100     0.000     0.000     0.000     0.000       89        0       30        0        0        1        0    19.916       99     48.2    9.595   10.661     0.81    0.000    0.000       31       12     2013  cluster_258.PRM
   Tot(4)        1        7     2014   1029.4   2399.3   3119.7   398.81    591.6   1024.7      4.7      0.0      0.0    844.7       50    829.1    829.1      100     0.000     0.000     0.000     0.000       89        0       30        0        0        1        0    19.959      100     48.2    9.616   10.684     0.82    0.000    0.000       31       12     2014  cluster_258.PRM
   Tot(5)        1        7     2015   1127.9   2397.3   3125.0   401.01    549.6   1123.9      4.0      0.0      0.0    901.6       53    814.5    814.5      100     0.000     0.000     0.000     0.000       89        0       30        0        0        1        0    19.786       99     48.2    9.532   10.591     0.82    0.000    0.000       31       12     2015  cluster_258.PRM
