AquaCrop 7.1 (August 2023) - Output created on (date) : 29-01-2026   at (time) : 01:20:29

   Run:   1
   Day Month  Year   DAP Stage   WC(2.30)   Rain     Irri   Surf   Infilt   RO    Drain       CR    Zgwt       Ex       E     E/Ex     Trx       Tr  Tr/Trx    ETx      ET  ET/ETx      GD       Z     StExp  StSto  StSen StSalt StWeed   CC      CCw     StTr  Kc(Tr)     Trx       Tr      TrW  Tr/Trx   WP    Biomass     HI    Y(dry)  Y(fresh)  Brelative    WPet      Bin     Bout  WC(2.30) Wr(2.30)     Z       Wr    Wr(SAT)    Wr(FC)   Wr(exp)   Wr(sto)   Wr(sen)   Wr(PWP)    SaltIn    SaltOut   SaltUp   Salt(2.30)  SaltZ     Z       ECe    ECsw   StSalt  Zgwt    ECgw       WC01       WC 2       WC 3       WC 4       WC 5       WC 6       WC 7       WC 8       WC 9       WC10       WC11       WC12      ECe01      ECe 2      ECe 3      ECe 4      ECe 5      ECe 6      ECe 7      ECe 8      ECe 9      ECe10      ECe11      ECe12     Rain       ETo      Tmin      Tavg      Tmax      CO2
                                      mm      mm       mm     mm     mm     mm       mm       mm      m        mm       mm     %        mm       mm    %        mm      mm       %  degC-day     m       %      %      %      %      %      %       %       %       -        mm       mm       mm    %     g/m2    ton/ha      %    ton/ha   ton/ha       %       kg/m3   ton/ha   ton/ha      mm       mm       m       mm        mm        mm        mm        mm        mm         mm    ton/ha    ton/ha    ton/ha    ton/ha    ton/ha     m      dS/m    dS/m      %     m      dS/m       0.05       0.18       0.33       0.48       0.63       0.80       1.00       1.20       1.43       1.68       1.93       2.18       0.05       0.18       0.33       0.48       0.63       0.80       1.00       1.20       1.43       1.68       1.93       2.18       mm        mm     degC      degC      degC       ppm
     1     7  2024     1     1     268.3     0.0      0.0    0.0    0.0    0.0      0.0      0.0   -9.90      0.3      0.2     99      0.0      0.0   100      0.3     0.2      99     20.3    0.30     -9     -9     -9      0     -9     0.0     0.0      0    -9.00      0.0      0.0      0.0   100     0.0     0.000    -9.9    0.000    0.000      -9        0.00    0.000    0.000     268.3    268.3    0.30    34.3     125.1      34.6      30.7      12.4      15.5       6.9    0.000     0.000     0.000     0.000     0.000    0.30     0.00    0.00      0   -9.90   -9.00       11.5       11.7       11.7       11.7       11.7       11.7       11.7       11.7       11.7       11.7       11.7       11.7        0.0        0.0        0.0        0.0        0.0        0.0        0.0        0.0        0.0        0.0        0.0        0.0      0.0       0.2      26.5      28.9      31.4    422.57
     2     7  2024     2     1     268.5     0.4      0.0    0.0    0.4    0.0      0.0      0.0   -9.90      0.2      0.2    100      0.0      0.0   100      0.2     0.2     100     20.1    0.30     -9     -9     -9      0     -9     0.0     0.0      0    -9.00      0.0      0.0      0.0   100     0.0     0.000    -9.9    0.000    0.000      -9        0.00    0.000    0.000     268.5    268.5    0.30    34.5     125.1      34.6      30.7      12.4      15.5       6.9    0.000     0.000     0.000     0.000     0.000    0.30     0.00    0.00      0   -9.90   -9.00       11.6       11.7       11.7       11.7       11.7       11.7       11.7       11.7       11.7       11.7       11.7       11.7        0.0        0.0        0.0        0.0        0.0        0.0        0.0        0.0        0.0        0.0        0.0        0.0      0.4       0.2      26.2      28.5      30.7    422.57
     3     7  2024     3     1     271.0     2.7      0.0    0.0    2.7    0.0      0.0      0.0   -9.90      0.3      0.3    100      0.0      0.0   100      0.3     0.3     100     20.2    0.30     -9     -9     -9      0     -9     0.0     0.0      0    -9.00      0.0      0.0      0.0   100     0.0     0.000    -9.9    0.000    0.000      -9        0.00    0.000    0.000     271.0    271.0    0.30    37.0     125.1      34.6      30.7      12.4      15.5       6.9    0.000     0.000     0.000     0.000     0.000    0.30     0.00    0.00      0   -9.90   -9.00       14.1       11.7       11.7       11.7       11.7       11.7       11.7       11.7       11.7       11.7       11.7       11.7        0.0        0.0        0.0        0.0        0.0        0.0        0.0        0.0        0.0        0.0        0.0        0.0      2.7       0.2      26.3      28.8      31.2    422.57
     4     7  2024     4     1     270.8     0.9      0.0    0.0    0.9    0.0      0.8      0.0   -9.90      0.3      0.3    100      0.0      0.0   100      0.3     0.3     100     20.3    0.30     -9     -9     -9      0     -9     0.0     0.0      0    -9.00      0.0      0.0      0.0   100     0.0     0.000    -9.9    0.000    0.000      -9        0.00    0.000    0.000     270.8    270.8    0.30    35.7     125.1      34.6      30.7      12.4      15.5       6.9    0.000     0.000     0.000     0.000     0.000    0.30     0.00    0.00      0   -9.90   -9.00       12.5       11.9       11.9       11.9       11.8       11.8       11.7       11.7       11.7       11.7       11.7       11.7        0.0        0.0        0.0        0.0        0.0        0.0        0.0        0.0        0.0        0.0        0.0        0.0      0.9       0.2      26.7      29.1      31.4    422.57
     5     7  2024     5     1     269.9     0.5      0.0    0.0    0.5    0.0      1.2      0.0   -9.90      0.3      0.3    100      0.0      0.0   100      0.3     0.3     100     19.9    0.32     -9     -9     -9      0     -9     0.0     0.0      0    -9.00      0.0      0.0      0.0   100     0.0     0.000    -9.9    0.000    0.000      -9        0.00    0.000    0.000     269.9    269.9    0.32    37.5     133.5      36.9      32.8      13.3      16.5       7.4    0.000     0.000     0.000     0.000     0.000    0.32     0.00    0.00      0   -9.90   -9.00       12.1       11.8       11.8       11.8       11.8       11.8       11.7       11.7       11.7       11.7       11.7       11.7        0.0        0.0        0.0        0.0        0.0        0.0        0.0        0.0        0.0        0.0        0.0        0.0      0.5       0.2      25.7      28.1      30.5    422.57
     6     7  2024     6     1     268.9     0.1      0.0    0.0    0.1    0.0      0.8      0.0   -9.90      0.3      0.3     99      0.0      0.0   100      0.3     0.3      99     19.9    0.36     -9     -9     -9      0     -9     0.0     0.0      0    -9.00      0.0      0.0      0.0   100     0.0     0.000    -9.9    0.000    0.000      -9        0.00    0.000    0.000     268.9    268.9    0.36    41.5     150.6      41.6      37.0      15.1      18.7       8.4    0.000     0.000     0.000     0.000     0.000    0.36     0.00    0.00      0   -9.90   -9.00       11.5       11.7       11.7       11.7       11.7       11.7       11.7       11.7       11.7       11.7       11.7       11.7        0.0        0.0        0.0        0.0        0.0        0.0        0.0        0.0        0.0        0.0        0.0        0.0      0.1       0.3      25.8      29.7      33.6    422.57
     7     7  2024     7     2     274.0     5.7      0.0    0.0    5.7    0.0      0.4      0.0   -9.90      0.2      0.2    100      0.0      0.0   100      0.2     0.2     100     18.7    0.40     -9      0      0      0      0     0.4     0.4      0     0.01      0.0      0.0      0.0   100    35.0     0.003    -9.9    0.000    0.000     100        0.00    0.000    0.000     274.0    274.0    0.40    51.2     166.4      46.0      34.2      16.6      16.6       9.3    0.000     0.000     0.000     0.000     0.000    0.40     0.00    0.00      0   -9.90   -9.00       17.0       11.7       11.7       11.7       11.7       11.7       11.7       11.7       11.7       11.7       11.7       11.7        0.0        0.0        0.0        0.0        0.0        0.0        0.0        0.0        0.0        0.0        0.0        0.0      5.7       0.2      24.8      26.7      28.6    422.57
     8     7  2024     8     2     280.6     8.8      0.0    0.0    8.7    0.1      1.9      0.0   -9.90      0.2      0.2    100      0.0      0.0   100      0.2     0.2     100     19.0    0.43     -9      0      0      0      0     0.5     0.5      0     0.01      0.0      0.0      0.0   100    35.0     0.006    -9.9    0.000    0.000     100        0.00    0.000    0.000     280.6    280.6    0.43    60.6     181.2      50.1      37.3      18.1      18.1      10.2    0.000     0.000     0.000     0.000     0.000    0.43     0.00    0.00      0   -9.90   -9.00       21.0       12.1       12.2       12.0       11.9       11.8       11.8       11.8       11.8       11.7       11.7       11.7        0.0        0.0        0.0        0.0        0.0        0.0        0.0        0.0        0.0        0.0        0.0        0.0      8.8       0.2      25.1      27.0      28.9    422.57
     9     7  2024     9     2     287.7    12.8      0.0    0.0   12.3    0.5      5.0      0.0   -9.90      0.2      0.2    100      0.0      0.0   100      0.2     0.2     100     19.9    0.47      0      0      0      0      0     0.6     0.6      0     0.01      0.0      0.0      0.0   100    35.0     0.010    -9.9    0.000    0.000     100        0.00    0.000    0.000     287.7    287.7    0.47    69.8     195.4      54.0      40.3      19.6      19.6      11.0    0.000     0.000     0.000     0.000     0.000    0.47     0.00    0.00      0   -9.90   -9.00       25.0       12.4       12.6       12.2       12.1       12.0       11.9       11.9       11.8       11.8       11.8       11.8        0.0        0.0        0.0        0.0        0.0        0.0        0.0        0.0        0.0        0.0        0.0        0.0     12.8       0.2      25.8      27.9      30.1    422.57
    10     7  2024    10     2     278.7     0.0      0.0    0.0    0.0    0.0      8.8      0.0   -9.90      0.3      0.3    100      0.0      0.0   100      0.3     0.3     100     19.4    0.50      0      0      0      0      0     0.7     0.7      0     0.01      0.0      0.0      0.0   100    35.0     0.014    -9.9    0.000    0.000     100        0.00    0.000    0.000     278.7    278.7    0.50    62.7     209.1      57.8      43.1      21.0      21.0      11.9    0.000     0.000     0.000     0.000     0.000    0.50     0.00    0.00      0   -9.90   -9.00       12.6       12.6       13.0       12.5       12.3       12.1       12.0       12.0       11.9       11.9       11.9       11.8        0.0        0.0        0.0        0.0        0.0        0.0        0.0        0.0        0.0        0.0        0.0        0.0      0.0       0.3      24.9      28.0      31.2    422.57
    11     7  2024    11     2     273.6     1.5      0.0    0.0    1.5    0.0      6.3      0.0   -9.90      0.3      0.3    100      0.0      0.0   100      0.3     0.3     100     20.0    0.53      0      0      0      0      0     0.8     0.8      0     0.01      0.0      0.0      0.0   100    35.0     0.019    -9.9    0.000    0.000     100        0.00    0.000    0.000     273.6    273.6    0.53    63.8     222.3      61.4      45.8      22.4      22.4      12.6    0.000     0.000     0.000     0.000     0.000    0.53     0.00    0.00      0   -9.90   -9.00       13.1       11.8       12.0       12.0       11.9       11.9       11.9       11.9       11.8       11.8       11.8       11.8        0.0        0.0        0.0        0.0        0.0        0.0        0.0        0.0        0.0        0.0        0.0        0.0      1.5       0.2      26.0      28.7      31.3    422.57
    12     7  2024    12     2     271.6     1.4      0.0    0.0    1.4    0.0      3.1      0.0   -9.90      0.2      0.2    100      0.0      0.0   100      0.2     0.2     100     20.0    0.56      0      0      0      0      0     1.0     1.0      0     0.02      0.0      0.0      0.0   100    35.0     0.026    -9.9    0.000    0.000     100        0.00    0.000    0.000     271.6    271.6    0.56    66.9     235.2      65.0      48.4      23.6      23.6      13.4    0.000     0.000     0.000     0.000     0.000    0.56     0.00    0.00      0   -9.90   -9.00       13.1       11.8       11.8       11.8       11.8       11.8       11.8       11.8       11.8       11.8       11.7       11.7        0.0        0.0        0.0        0.0        0.0        0.0        0.0        0.0        0.0        0.0        0.0        0.0      1.4       0.2      26.5      28.0      29.4    422.57
    13     7  2024    13     2     273.8     4.0      0.0    0.0    4.0    0.0      1.6      0.0   -9.90      0.2      0.2    100      0.0      0.0   100      0.2     0.2     100     20.1    0.59      0      0      0      0      0     1.2     1.2      0     0.02      0.0      0.0      0.0   100    35.0     0.033    -9.9    0.000    0.000     100        0.00    0.000    0.000     273.8    273.8    0.59    72.9     247.7      68.4      51.0      24.9      24.9      14.1    0.000     0.000     0.000     0.000     0.000    0.59     0.00    0.00      0   -9.90   -9.00       15.7       11.8       11.8       11.8       11.8       11.8       11.7       11.7       11.7       11.7       11.7       11.7        0.0        0.0        0.0        0.0        0.0        0.0        0.0        0.0        0.0        0.0        0.0        0.0      4.0       0.2      26.1      28.2      30.3    422.57
    14     7  2024    14     2     273.4     2.1      0.0    0.0    2.1    0.0      2.2      0.0   -9.90      0.3      0.3    100      0.0      0.0   100      0.3     0.3     100     19.8    0.62      0      0      0      0      0     1.4     1.4      0     0.02      0.0      0.0      0.0   100    35.0     0.041    -9.9    0.000    0.000     100        0.00    0.000    0.000     273.4    273.4    0.62    75.5     259.9      71.8      53.6      26.2      26.2      14.8    0.000     0.000     0.000     0.000     0.000    0.62     0.00    0.00      0   -9.90   -9.00       13.9       12.0       12.1       11.9       11.9       11.8       11.8       11.8       11.8       11.8       11.7       11.7        0.0        0.0        0.0        0.0        0.0        0.0        0.0        0.0        0.0        0.0        0.0        0.0      2.1       0.2      25.6      28.5      31.3    422.57
    15     7  2024    15     2     274.0     3.2      0.0    0.0    3.2    0.0      2.4      0.0   -9.90      0.2      0.2    100      0.0      0.0   100      0.2     0.2     100     20.4    0.65      0      0      0      0      0     1.6     1.6      0     0.03      0.0      0.0      0.0   100    35.0     0.051    -9.9    0.000    0.000     100        0.00    0.000    0.000     274.0    274.0    0.65    79.4     271.9      75.1      56.0      27.4      27.4      15.6    0.000     0.000     0.000     0.000     0.000    0.65     0.00    0.00      0   -9.90   -9.00       15.0       11.9       12.0       11.9       11.8       11.8       11.8       11.8       11.8       11.7       11.7       11.7        0.0        0.0        0.0        0.0        0.0        0.0        0.0        0.0        0.0        0.0        0.0        0.0      3.2       0.2      26.8      28.6      30.5    422.57
    16     7  2024    16     2     274.4     3.2      0.0    0.0    3.2    0.0      2.5      0.0   -9.90      0.3      0.3    100      0.0      0.0   100      0.3     0.3     100     20.3    0.67      0      0      0      0      0     1.9     1.9      0     0.03      0.0      0.0      0.0   100    35.0     0.063    -9.9    0.000    0.000     100        0.00    0.000    0.000     274.4    274.4    0.67    83.1     283.6      78.3      58.5      28.7      28.7      16.2    0.000     0.000     0.000     0.000     0.000    0.67     0.00    0.00      0   -9.90   -9.00       15.1       12.0       12.0       11.9       11.8       11.8       11.8       11.8       11.8       11.8       11.7       11.7        0.0        0.0        0.0        0.0        0.0        0.0        0.0        0.0        0.0        0.0        0.0        0.0      3.2       0.2      26.6      29.1      31.5    422.57
    17     7  2024    17     2     274.5     3.0      0.0    0.0    3.0    0.0      2.7      0.0   -9.90      0.2      0.2    100      0.0      0.0   100      0.2     0.2     100     20.3    0.70      0      0      0      0      0     2.3     2.3      0     0.04      0.0      0.0      0.0   100    35.0     0.077    -9.9    0.000    0.000     100        0.00    0.000    0.000     274.5    274.5    0.70    86.3     295.2      81.5      60.8      29.8      29.8      16.9    0.000     0.000     0.000     0.000     0.000    0.70     0.00    0.00      0   -9.90   -9.00       14.9       12.0       12.1       11.9       11.9       11.8       11.8       11.8       11.8       11.8       11.7       11.7        0.0        0.0        0.0        0.0        0.0        0.0        0.0        0.0        0.0        0.0        0.0        0.0      3.0       0.2      26.5      28.4      30.3    422.57
    18     7  2024    18     2     281.5    10.2      0.0    0.0   10.0    0.2      2.8      0.0   -9.90      0.2      0.2    100      0.0      0.0   100      0.2     0.2     100     19.2    0.73      0      0      0      0      0     2.7     2.7      0     0.05      0.0      0.0      0.0   100    35.0     0.094    -9.9    0.000    0.000     100        0.00    0.000    0.000     281.5    281.5    0.73    96.4     306.5      84.6      63.1      30.9      30.9      17.6    0.000     0.000     0.000     0.000     0.000    0.73     0.00    0.00      0   -9.90   -9.00       22.1       12.0       12.0       11.9       11.9       11.8       11.8       11.8       11.8       11.8       11.7       11.7        0.0        0.0        0.0        0.0        0.0        0.0        0.0        0.0        0.0        0.0        0.0        0.0     10.2       0.2      25.4      27.2      29.0    422.57
    19     7  2024    19     2     285.7    10.1      0.0    0.0    9.9    0.2      5.4      0.0   -9.90      0.3      0.3    100      0.0      0.0   100      0.3     0.3     100     19.4    0.75      0      0      0      0      0     3.2     3.2      0     0.06      0.0      0.0      0.0   100    35.0     0.113    -9.9    0.000    0.000     100        0.00    0.000    0.000     285.7    285.7    0.75   102.5     317.7      87.7      65.6      32.2      32.2      18.3    0.000     0.000     0.000     0.000     0.000    0.75     0.00    0.00      0   -9.90   -9.00       22.5       12.5       12.7       12.3       12.1       12.0       11.9       11.9       11.8       11.8       11.8       11.8        0.0        0.0        0.0        0.0        0.0        0.0        0.0        0.0        0.0        0.0        0.0        0.0     10.1       0.3      24.9      27.9      31.0    422.57
    20     7  2024    20     2     279.7     2.5      0.0    0.0    2.5    0.0      8.2      0.0   -9.90      0.2      0.2    100      0.0      0.0   100      0.3     0.3     100     20.3    0.78      0      0      0      0      0     3.7     3.7      0     0.06      0.0      0.0      0.0   100    35.0     0.136    -9.9    0.000    0.000     100        0.00    0.000    0.000     279.7    279.7    0.78    98.5     328.7      90.8      67.8      33.2      33.2      18.9    0.000     0.000     0.000     0.000     0.000    0.78     0.00    0.00      0   -9.90   -9.00       14.4       12.5       12.8       12.4       12.3       12.1       12.1       12.0       11.9       11.9       11.9       11.8        0.0        0.0        0.0        0.0        0.0        0.0        0.0        0.0        0.0        0.0        0.0        0.0      2.5       0.2      26.6      28.9      31.2    422.57
    21     7  2024    21     2     273.0     0.2      0.0    0.0    0.2    0.0      6.7      0.0   -9.90      0.2      0.2    100      0.0      0.0   100      0.3     0.3     100     20.2    0.81      0      0      0      0      0     4.4     4.4      0     0.08      0.0      0.0      0.0   100    35.0     0.163    -9.9    0.000    0.000     100        0.00    0.000    0.000     273.0    273.0    0.81    96.0     339.6      93.8      70.1      34.4      34.4      19.5    0.000     0.000     0.000     0.000     0.000    0.81     0.00    0.00      0   -9.90   -9.00       11.8       12.0       12.1       12.0       12.0       11.9       11.9       11.9       11.8       11.8       11.8       11.8        0.0        0.0        0.0        0.0        0.0        0.0        0.0        0.0        0.0        0.0        0.0        0.0      0.2       0.2      26.4      29.0      31.6    422.57
    22     7  2024    22     2     269.7     0.1      0.0    0.0    0.1    0.0      3.1      0.0   -9.90      0.3      0.3    100      0.0      0.0   100      0.3     0.3     100     20.5    0.83      0      0      0      0      0     5.2     5.2      0     0.09      0.0      0.0      0.0   100    35.0     0.194    -9.9    0.000    0.000     100        0.00    0.000    0.000     269.7    269.7    0.83    97.0     350.3      96.7      72.3      35.5      35.5      20.2    0.000     0.000     0.000     0.000     0.000    0.83     0.00    0.00      0   -9.90   -9.00       11.5       11.7       11.8       11.8       11.8       11.8       11.8       11.8       11.8       11.8       11.7       11.7        0.0        0.0        0.0        0.0        0.0        0.0        0.0        0.0        0.0        0.0        0.0        0.0      0.1       0.2      26.9      29.5      32.2    422.57
    23     7  2024    23     2     270.1     1.6      0.0    0.0    1.6    0.0      1.0      0.0   -9.90      0.2      0.2    100      0.0      0.0   100      0.2     0.2     100     20.1    0.86      0      0      0      0      0     6.1     6.1      0     0.10      0.0      0.0      0.0   100    35.0     0.231    -9.9    0.000    0.000     100        0.00    0.000    0.000     270.1    270.1    0.86   100.9     360.9      99.7      74.3      36.5      36.5      20.8    0.000     0.000     0.000     0.000     0.000    0.86     0.00    0.00      0   -9.90   -9.00       12.9       11.7       11.7       11.7       11.7       11.7       11.7       11.7       11.7       11.7       11.7       11.7        0.0        0.0        0.0        0.0        0.0        0.0        0.0        0.0        0.0        0.0        0.0        0.0      1.6       0.2      26.6      28.1      29.7    422.57
    24     7  2024    24     2     273.9     4.7      0.0    0.0    4.7    0.0      0.6      0.0   -9.90      0.2      0.2    100      0.0      0.0   100      0.2     0.2     100     20.0    0.88      0      0      0      0      0     7.2     7.2      0     0.12      0.0      0.0      0.0   100    35.0     0.274    -9.9    0.000    0.000     100        0.00    0.000    0.000     273.9    273.9    0.88   107.7     371.4     102.5      76.6      37.6      37.6      21.4    0.000     0.000     0.000     0.000     0.000    0.88     0.00    0.00      0   -9.90   -9.00       16.4       11.8       11.8       11.8       11.7       11.7       11.7       11.7       11.7       11.7       11.7       11.7        0.0        0.0        0.0        0.0        0.0        0.0        0.0        0.0        0.0        0.0        0.0        0.0      4.7       0.2      26.0      28.1      30.1    422.57
    25     7  2024    25     2     291.0    21.1      0.0    0.0   19.2    2.0      2.0      0.0   -9.90      0.1      0.1    100      0.0      0.0   100      0.1     0.1     100     18.4    0.91      0      0      0      0      0     8.5     8.5      0     0.14      0.0      0.0      0.0   100    35.0     0.324    -9.9    0.000    0.000     100        0.00    0.000    0.000     291.0    291.0    0.91   127.1     381.7     105.4      78.4      38.5      38.5      22.0    0.000     0.000     0.000     0.000     0.000    0.91     0.00    0.00      0   -9.90   -9.00       31.7       12.1       12.1       11.9       11.9       11.8       11.8       11.8       11.8       11.7       11.7       11.7        0.0        0.0        0.0        0.0        0.0        0.0        0.0        0.0        0.0        0.0        0.0        0.0     21.1       0.1      25.7      26.4      27.1    422.57
    26     7  2024    26     2     343.3   125.1      0.0    0.0   62.4   62.7      9.9      0.0   -9.90      0.2      0.2    100      0.0      0.0   100      0.3     0.3     100     19.6    0.93      0      0      0      0      0    10.0    10.0      0     0.17      0.0      0.0      0.0   100    35.0     0.383    -9.9    0.000    0.000     100        0.00    0.000    0.000     343.3    343.3    0.93   179.5     392.0     108.2      80.9      39.7      39.7      22.6    0.000     0.000     0.000     0.000     0.000    0.93     0.00    0.00      0   -9.90   -9.00       42.0       35.2       13.5       12.8       12.5       12.3       12.1       12.0       12.0       11.9       11.9       11.9        0.0        0.0        0.0        0.0        0.0        0.0        0.0        0.0        0.0        0.0        0.0        0.0    125.1       0.2      25.2      27.6      30.1    422.57
    27     7  2024    27     2     302.5     2.6      0.0    0.0    2.6    0.0     43.1      0.0   -9.90      0.2      0.2    100      0.0      0.0   100      0.3     0.3     100     20.1    0.95      0      0      0      0      0    11.8    11.8      0     0.20      0.0      0.0      0.0   100    35.0     0.452    -9.9    0.000    0.000     100        0.00    0.000    0.000     302.5    302.5    0.95   131.7     402.2     111.0      83.0      40.8      40.8      23.2    0.000     0.000     0.000     0.000     0.000    0.95     0.00    0.00      0   -9.90   -9.00       14.1       11.7       15.1       14.8       14.2       13.7       13.3       13.0       12.8       12.6       12.4       12.3        0.0        0.0        0.0        0.0        0.0        0.0        0.0        0.0        0.0        0.0        0.0        0.0      2.6       0.2      26.2      29.0      31.7    422.57
    28     7  2024    28     2     278.9     0.3      0.0    0.0    0.3    0.0     23.7      0.0   -9.90      0.2      0.2    100      0.1      0.1   100      0.3     0.3     100     20.2    0.98      0      0      0      0      0    14.0    14.0      0     0.23      0.1      0.1      0.1   100    35.0     0.532    -9.9    0.000    0.000     100        0.00    0.000    0.000     278.9    278.9    0.98   118.7     412.2     113.8      85.1      41.8      41.8      23.8    0.000     0.000     0.000     0.000     0.000    0.98     0.00    0.00      0   -9.90   -9.00       11.8       11.9       12.5       12.4       12.3       12.2       12.2       12.2       12.1       12.1       12.1       12.0        0.0        0.0        0.0        0.0        0.0        0.0        0.0        0.0        0.0        0.0        0.0        0.0      0.3       0.2      26.4      28.8      31.2    422.57
    29     7  2024    29     2     271.0     0.0      0.0    0.0    0.0    0.0      7.7      0.0   -9.90      0.2      0.2    100      0.1      0.1   100      0.2     0.2     100     20.0    1.00      0      0      0      0      0    16.5    16.5      0     0.27      0.1      0.1      0.1   100    35.0     0.626    -9.9    0.000    0.000     100        0.00    0.000    0.000     271.0    271.0    1.00   117.5     422.2     116.6      87.1      42.8      42.8      24.4    0.000     0.000     0.000     0.000     0.000    1.00     0.00    0.00      0   -9.90   -9.00       11.5       11.7       11.9       11.9       11.8       11.8       11.8       11.8       11.8       11.8       11.8       11.8        0.0        0.0        0.0        0.0        0.0        0.0        0.0        0.0        0.0        0.0        0.0        0.0      0.0       0.2      26.0      28.4      30.9    422.57
    30     7  2024    30     2     269.4     0.6      0.0    0.0    0.6    0.0      2.0      0.0   -9.90      0.2      0.2    100      0.1      0.1   100      0.2     0.2     100     20.4    1.02      0      0      0      0      0    19.4    19.4      0     0.31      0.1      0.1      0.1   100    35.0     0.734    -9.9    0.000    0.000     100        0.00    0.000    0.000     269.4    269.4    1.02   119.7     432.0     119.3      89.1      43.8      43.8      25.0    0.000     0.000     0.000     0.000     0.000    1.02     0.00    0.00      0   -9.90   -9.00       11.9       11.7       11.7       11.7       11.7       11.7       11.7       11.7       11.7       11.7       11.7       11.7        0.0        0.0        0.0        0.0        0.0        0.0        0.0        0.0        0.0        0.0        0.0        0.0      0.6       0.2      26.8      28.8      30.8    422.57
    31     7  2024    31     2     270.8     2.2      0.0    0.0    2.2    0.0      0.5      0.0   -9.90      0.2      0.2    100      0.1      0.1   100      0.2     0.2     100     20.1    1.05      0      0      0      0      0    22.9    22.9      0     0.36      0.1      0.1      0.1   100    35.0     0.859    -9.9    0.000    0.000     100        0.00    0.000    0.000     270.8    270.8    1.05   124.1     441.8     122.0      91.1      44.8      44.8      25.6    0.000     0.000     0.000     0.000     0.000    1.05     0.00    0.00      0   -9.90   -9.00       13.8       11.7       11.7       11.7       11.7       11.7       11.7       11.7       11.7       11.7       11.7       11.7        0.0        0.0        0.0        0.0        0.0        0.0        0.0        0.0        0.0        0.0        0.0        0.0      2.2       0.2      26.2      28.4      30.6    422.57
     1     8  2024    32     2     274.3     4.5      0.0    0.0    4.5    0.0      0.8      0.0   -9.90      0.2      0.2    100      0.1      0.1   100      0.2     0.2     100     20.0    1.07      0      0      0      0      0    27.0    27.0      0     0.41      0.1      0.1      0.1   100    35.0     1.003    -9.9    0.000    0.000     100        0.00    0.000    0.000     274.3    274.3    1.07   130.2     451.5     124.7      93.2      45.8      45.8      26.1    0.000     0.000     0.000     0.000     0.000    1.07     0.00    0.00      0   -9.90   -9.00       16.3       11.9       11.9       11.8       11.8       11.7       11.7       11.7       11.7       11.7       11.7       11.7        0.0        0.0        0.0        0.0        0.0        0.0        0.0        0.0        0.0        0.0        0.0        0.0      4.5       0.2      26.1      28.4      30.8    422.57
     2     8  2024    33     2     271.8     0.0      0.0    0.0    0.0    0.0      2.3      0.0   -9.90      0.1      0.1     96      0.1      0.1   100      0.3     0.3      98     20.0    1.09      0      0      0      0      0    31.8    31.8      0     0.47      0.1      0.1      0.1   100    35.0     1.168    -9.9    0.000    0.000     100        0.00    0.000    0.000     271.8    271.8    1.09   130.0     461.2     127.3      95.2      46.8      46.8      26.7    0.000     0.000     0.000     0.000     0.000    1.09     0.00    0.00      0   -9.90   -9.00       12.0       12.1       12.1       12.0       11.9       11.8       11.8       11.8       11.8       11.7       11.7       11.7        0.0        0.0        0.0        0.0        0.0        0.0        0.0        0.0        0.0        0.0        0.0        0.0      0.0       0.2      26.1      28.6      31.2    422.57
     3     8  2024    34     2     269.6     0.0      0.0    0.0    0.0    0.0      2.0      0.0   -9.90      0.1      0.1    100      0.1      0.1   100      0.3     0.3     100     19.9    1.12      0      0      0      0      0    37.5    37.5      0     0.54      0.1      0.1      0.1   100    35.0     1.357    -9.9    0.000    0.000     100        0.00    0.000    0.000     269.6    269.6    1.12   130.5     470.7     130.0      97.2      47.8      47.8      27.3    0.000     0.000     0.000     0.000     0.000    1.12     0.00    0.00      0   -9.90   -9.00       11.5       11.8       11.8       11.8       11.8       11.8       11.8       11.8       11.7       11.7       11.7       11.7        0.0        0.0        0.0        0.0        0.0        0.0        0.0        0.0        0.0        0.0        0.0        0.0      0.0       0.2      25.8      28.5      31.3    422.57
     4     8  2024    35     2     277.3     8.8      0.0    0.0    8.7    0.1      0.9      0.0   -9.90      0.1      0.1    100      0.1      0.1   100      0.1     0.1     100     18.2    1.14      0      0      0      0      0    44.3    44.3      0     0.61      0.1      0.1      0.1   100    35.0     1.571    -9.9    0.000    0.000     100        0.00    0.000    0.000     277.3    277.3    1.14   141.1     480.2     132.6      98.7      48.5      48.5      27.8    0.000     0.000     0.000     0.000     0.000    1.14     0.00    0.00      0   -9.90   -9.00       20.2       11.7       11.7       11.7       11.7       11.7       11.7       11.7       11.7       11.7       11.7       11.7        0.0        0.0        0.0        0.0        0.0        0.0        0.0        0.0        0.0        0.0        0.0        0.0      8.8       0.1      25.3      26.2      27.1    422.57
     5     8  2024    36     2     317.9    65.0      0.0    0.0   44.0   21.1      3.2      0.0   -9.90      0.1      0.1    100      0.1      0.1   100      0.2     0.2     100     18.9    1.16      0      0      0      0      0    51.8    51.8      0     0.69      0.1      0.1      0.1   100    35.0     1.812    -9.9    0.000    0.000     100        0.00    0.000    0.000     317.9    317.9    1.16   183.7     489.6     135.2     100.8      49.6      49.6      28.4    0.000     0.000     0.000     0.000     0.000    1.16     0.00    0.00      0   -9.90   -9.00       42.1       22.4       12.5       12.1       12.0       11.9       11.8       11.8       11.8       11.8       11.8       11.7        0.0        0.0        0.0        0.0        0.0        0.0        0.0        0.0        0.0        0.0        0.0        0.0     65.0       0.2      25.3      26.9      28.4    422.57
     6     8  2024    37     2     305.7    14.8      0.0    0.0   14.1    0.7     26.0      0.0   -9.90      0.1      0.1    100      0.2      0.2   100      0.2     0.2     100     19.8    1.18      0      0      0      0      0    58.4    58.4      0     0.75      0.2      0.2      0.2   100    35.0     2.075    -9.9    0.000    0.000     100        0.00    0.000    0.000     305.7    305.7    1.18   168.6     499.0     137.8     103.0      50.7      50.7      28.9    0.000     0.000     0.000     0.000     0.000    1.18     0.00    0.00      0   -9.90   -9.00       25.8       11.7       15.0       14.1       13.5       13.1       12.8       12.5       12.4       12.3       12.2       12.1        0.0        0.0        0.0        0.0        0.0        0.0        0.0        0.0        0.0        0.0        0.0        0.0     14.8       0.2      25.7      28.0      30.4    422.57
     7     8  2024    38     2     284.5     1.7      0.0    0.0    1.7    0.0     22.7      0.0   -9.90      0.1      0.1    100      0.2      0.2   100      0.2     0.2     100     19.9    1.20      0      0      0      0      0    64.0    64.0      0     0.80      0.2      0.2      0.2   100    35.0     2.354    -9.9    0.000    0.000     100        0.00    0.000    0.000     284.5    284.5    1.20   151.5     508.3     140.3     104.8      51.6      51.6      29.5    0.000     0.000     0.000     0.000     0.000    1.20     0.00    0.00      0   -9.90   -9.00       13.4       12.6       13.0       12.7       12.6       12.5       12.3       12.3       12.2       12.1       12.1       12.1        0.0        0.0        0.0        0.0        0.0        0.0        0.0        0.0        0.0        0.0        0.0        0.0      1.7       0.2      25.9      27.9      29.9    422.57
     8     8  2024    39     2     279.5     6.0      0.0    0.0    6.0    0.0     10.8      0.0   -9.90      0.1      0.1    100      0.2      0.2   100      0.3     0.3     100     19.9    1.23      0      0      0      0      0    68.8    68.8      0     0.84      0.2      0.2      0.2   100    35.0     2.647    -9.9    0.000    0.000     100        0.00    0.000    0.000     279.5    279.5    1.23   151.8     517.5     142.9     106.9      52.6      52.6      30.0    0.000     0.000     0.000     0.000     0.000    1.23     0.00    0.00      0   -9.90   -9.00       17.8       11.9       12.0       12.0       12.0       12.0       11.9       11.9       11.9       11.9       11.9       11.9        0.0        0.0        0.0        0.0        0.0        0.0        0.0        0.0        0.0        0.0        0.0        0.0      6.0       0.2      25.8      28.4      30.9    422.57
     9     8  2024    40     2     280.6     7.1      0.0    0.0    7.1    0.0      5.7      0.0   -9.90      0.0      0.0    100      0.2      0.2   100      0.2     0.2     100     20.4    1.25      0      0      0      0      0    72.8    72.8      0     0.87      0.2      0.2      0.2   100    35.0     2.950    -9.9    0.000    0.000     100        0.00    0.000    0.000     280.6    280.6    1.25   156.4     526.7     145.4     108.7      53.5      53.5      30.6    0.000     0.000     0.000     0.000     0.000    1.25     0.00    0.00      0   -9.90   -9.00       19.4       12.2       12.3       12.0       11.9       11.9       11.9       11.8       11.8       11.8       11.8       11.8        0.0        0.0        0.0        0.0        0.0        0.0        0.0        0.0        0.0        0.0        0.0        0.0      7.1       0.2      26.8      29.0      31.1    422.57
    10     8  2024    41     2     276.7     2.0      0.0    0.0    2.0    0.0      5.8      0.0   -9.90      0.0      0.0    100      0.2      0.2   100      0.2     0.2     100     20.4    1.27      0      0      0      0      0    76.2    76.2      0     0.89      0.2      0.2      0.2   100    35.0     3.263    -9.9    0.000    0.000     100        0.00    0.000    0.000     276.7    276.7    1.27   154.8     535.8     147.9     110.4      54.3      54.3      31.1    0.000     0.000     0.000     0.000     0.000    1.27     0.00    0.00      0   -9.90   -9.00       13.9       12.3       12.5       12.2       12.2       12.0       11.9       11.9       11.8       11.8       11.8       11.8        0.0        0.0        0.0        0.0        0.0        0.0        0.0        0.0        0.0        0.0        0.0        0.0      2.0       0.2      26.9      28.4      30.0    422.57
    11     8  2024    42     2     275.4     3.6      0.0    0.0    3.6    0.0      4.6      0.0   -9.90      0.0      0.0    100      0.2      0.2   100      0.3     0.3     100     20.0    1.29      0      0      0      0      0    79.1    79.1      0     0.91      0.2      0.2      0.2   100    35.0     3.584    -9.9    0.000    0.000     100        0.00    0.000    0.000     275.4    275.4    1.29   156.3     544.9     150.4     112.5      55.4      55.4      31.6    0.000     0.000     0.000     0.000     0.000    1.29     0.00    0.00      0   -9.90   -9.00       15.4       12.0       12.0       11.9       11.9       11.9       11.8       11.8       11.8       11.8       11.8       11.8        0.0        0.0        0.0        0.0        0.0        0.0        0.0        0.0        0.0        0.0        0.0        0.0      3.6       0.2      26.0      28.7      31.3    422.57
    12     8  2024    43     2     279.3     7.6      0.0    0.0    7.5    0.0      3.4      0.0   -9.90      0.0      0.0    100      0.2      0.2   100      0.2     0.2     100     20.0    1.31      0      0      0      0      0    81.6    81.6      0     0.93      0.2      0.2      0.2   100    35.0     3.910    -9.9    0.000    0.000     100        0.00    0.000    0.000     279.3    279.3    1.31   163.0     553.9     152.9     114.3      56.2      56.2      32.2    0.000     0.000     0.000     0.000     0.000    1.31     0.00    0.00      0   -9.90   -9.00       19.6       12.0       12.1       11.9       11.9       11.8       11.8       11.8       11.8       11.8       11.8       11.8        0.0        0.0        0.0        0.0        0.0        0.0        0.0        0.0        0.0        0.0        0.0        0.0      7.6       0.2      26.1      28.3      30.6    422.57
    13     8  2024    44     2     275.2     0.9      0.0    0.0    0.9    0.0      4.7      0.0   -9.90      0.0      0.0    100      0.2      0.2   100      0.2     0.2     100     20.6    1.33      0      0      0      0      0    83.7    83.7      0     0.95      0.2      0.2      0.2   100    35.0     4.242    -9.9    0.000    0.000     100        0.00    0.000    0.000     275.2    275.2    1.33   161.1     562.8     155.4     116.1      57.1      57.1      32.7    0.000     0.000     0.000     0.000     0.000    1.33     0.00    0.00      0   -9.90   -9.00       12.6       12.3       12.5       12.3       12.1       11.9       11.9       11.9       11.8       11.8       11.8       11.8        0.0        0.0        0.0        0.0        0.0        0.0        0.0        0.0        0.0        0.0        0.0        0.0      0.9       0.2      27.1      29.0      30.9    422.57
    14     8  2024    45     2     271.7     0.8      0.0    0.0    0.8    0.0      4.1      0.0   -9.90      0.0      0.0    100      0.2      0.2   100      0.2     0.2     100     20.4    1.35      0      0      0      0      0    85.4    85.4      0     0.96      0.2      0.2      0.2   100    35.0     4.578    -9.9    0.000    0.000     100        0.00    0.000    0.000     271.7    271.7    1.35   160.3     571.7     157.8     117.9      58.0      58.0      33.2    0.000     0.000     0.000     0.000     0.000    1.35     0.00    0.00      0   -9.90   -9.00       12.4       11.8       11.9       11.9       11.9       11.8       11.8       11.8       11.8       11.8       11.8       11.8        0.0        0.0        0.0        0.0        0.0        0.0        0.0        0.0        0.0        0.0        0.0        0.0      0.8       0.2      26.8      28.8      30.8    422.57
    15     8  2024    46     2     270.9     1.4      0.0    0.0    1.4    0.0      2.0      0.0   -9.90      0.0      0.0    100      0.2      0.2   100      0.2     0.2     100     20.3    1.37      0      0      0      0      0    86.9    86.9      0     0.97      0.2      0.2      0.2   100    35.0     4.917    -9.9    0.000    0.000     100        0.00    0.000    0.000     270.9    270.9    1.37   162.3     580.6     160.3     119.8      59.0      59.0      33.8    0.000     0.000     0.000     0.000     0.000    1.37     0.00    0.00      0   -9.90   -9.00       13.0       11.8       11.8       11.8       11.8       11.8       11.7       11.7       11.7       11.7       11.7       11.7        0.0        0.0        0.0        0.0        0.0        0.0        0.0        0.0        0.0        0.0        0.0        0.0      1.4       0.2      26.6      28.9      31.2    422.57
    16     8  2024    47     2     281.3    12.2      0.0    0.0   11.8    0.4      1.2      0.0   -9.90      0.0      0.0    100      0.2      0.2   100      0.2     0.2     100     19.7    1.40      0      0      0      0      0    88.2    88.2      0     0.98      0.2      0.2      0.2   100    35.0     5.260    -9.9    0.000    0.000     100        0.00    0.000    0.000     281.3    281.3    1.40   175.3     589.4     162.7     121.5      59.8      59.8      34.3    0.000     0.000     0.000     0.000     0.000    1.40     0.00    0.00      0   -9.90   -9.00       23.7       11.8       11.8       11.8       11.8       11.7       11.7       11.7       11.7       11.7       11.7       11.7        0.0        0.0        0.0        0.0        0.0        0.0        0.0        0.0        0.0        0.0        0.0        0.0     12.2       0.2      25.9      27.7      29.6    422.57
    17     8  2024    48     2     284.3     8.2      0.0    0.0    8.1    0.1      5.0      0.0   -9.90      0.0      0.0    100      0.1      0.1   100      0.1     0.1     100     19.0    1.42      0      0      0      0      0    89.3    89.3      0     0.98      0.1      0.1      0.1   100    35.0     5.605    -9.9    0.000    0.000     100        0.00    0.000    0.000     284.3    284.3    1.42   179.9     598.2     165.1     123.0      60.5      60.5      34.8    0.000     0.000     0.000     0.000     0.000    1.42     0.00    0.00      0   -9.90   -9.00       20.8       12.5       12.8       12.3       12.1       12.0       11.9       11.9       11.8       11.8       11.8       11.8        0.0        0.0        0.0        0.0        0.0        0.0        0.0        0.0        0.0        0.0        0.0        0.0      8.2       0.1      26.1      27.0      27.9    422.57
    18     8  2024    49     2     289.0    12.9      0.0    0.0   12.4    0.5      7.5      0.0   -9.90      0.0      0.0    100      0.2      0.2   100      0.2     0.2     100     19.8    1.44      0      0      0      0      0    90.2    90.2      0     0.99      0.2      0.2      0.2   100    35.0     5.952    -9.9    0.000    0.000     100        0.00    0.000    0.000     289.0    289.0    1.44   186.7     606.9     167.5     125.1      61.6      61.6      35.3    0.000     0.000     0.000     0.000     0.000    1.44     0.00    0.00      0   -9.90   -9.00       25.1       12.4       12.6       12.3       12.2       12.1       12.0       11.9       11.9       11.9       11.8       11.8        0.0        0.0        0.0        0.0        0.0        0.0        0.0        0.0        0.0        0.0        0.0        0.0     12.9       0.2      26.2      27.8      29.4    422.57
    19     8  2024    50     2     287.2     8.3      0.0    0.0    8.3    0.1      9.9      0.0   -9.90      0.0      0.0    100      0.2      0.2   100      0.2     0.2     100     19.7    1.46      0      0      0      0      0    90.9    90.9      0     1.00      0.2      0.2      0.2   100    35.0     6.301    -9.9    0.000    0.000     100        0.00    0.000    0.000     287.2    287.2    1.46   187.0     615.5     169.9     126.8      62.4      62.4      35.8    0.000     0.000     0.000     0.000     0.000    1.46     0.00    0.00      0   -9.90   -9.00       20.9       12.6       13.0       12.5       12.3       12.2       12.1       12.0       11.9       11.9       11.9       11.8        0.0        0.0        0.0        0.0        0.0        0.0        0.0        0.0        0.0        0.0        0.0        0.0      8.3       0.2      26.2      27.7      29.2    422.57
    20     8  2024    51     2     288.2    11.1      0.0    0.0   10.8    0.3      9.6      0.0   -9.90      0.0      0.0    100      0.2      0.2   100      0.2     0.2     100     18.9    1.48      0      0      0      0      0    91.6    91.6      0     1.00      0.2      0.2      0.2   100    35.0     6.652    -9.9    0.000    0.000     100        0.00    0.000    0.000     288.2    288.2    1.48   190.5     624.2     172.3     128.4      63.2      63.2      36.3    0.000     0.000     0.000     0.000     0.000    1.48     0.00    0.00      0   -9.90   -9.00       23.5       12.5       12.7       12.4       12.2       12.1       12.0       12.0       11.9       11.9       11.9       11.8        0.0        0.0        0.0        0.0        0.0        0.0        0.0        0.0        0.0        0.0        0.0        0.0     11.1       0.1      25.8      26.9      27.9    422.57
    21     8  2024    52     2     281.3     3.2      0.0    0.0    3.2    0.0     10.0      0.0   -9.90      0.0      0.0    100      0.2      0.2   100      0.2     0.2     100     19.4    1.50      0      0      0      0      0    92.1    92.1      0     1.00      0.2      0.2      0.2   100    35.0     7.003    -9.9    0.000    0.000     100        0.00    0.000    0.000     281.3    281.3    1.50   185.8     632.8     174.7     130.5      64.3      64.3      36.8    0.000     0.000     0.000     0.000     0.000    1.50     0.00    0.00      0   -9.90   -9.00       15.3       12.6       12.9       12.4       12.2       12.1       12.1       12.0       11.9       11.9       11.9       11.9        0.0        0.0        0.0        0.0        0.0        0.0        0.0        0.0        0.0        0.0        0.0        0.0      3.2       0.2      25.4      27.4      29.5    422.57
    22     8  2024    53     2     279.5     5.8      0.0    0.0    5.8    0.0      7.4      0.0   -9.90      0.0      0.0    100      0.2      0.2   100      0.2     0.2     100     19.8    1.52      0      0      0      0      0    92.6    92.6      0     1.01      0.2      0.2      0.2   100    35.0     7.356    -9.9    0.000    0.000     100        0.00    0.000    0.000     279.5    279.5    1.52   187.0     641.3     177.0     132.3      65.2      65.2      37.3    0.000     0.000     0.000     0.000     0.000    1.52     0.00    0.00      0   -9.90   -9.00       17.9       12.1       12.2       12.1       12.0       12.0       11.9       11.9       11.9       11.8       11.8       11.8        0.0        0.0        0.0        0.0        0.0        0.0        0.0        0.0        0.0        0.0        0.0        0.0      5.8       0.2      25.6      27.9      30.1    422.57
    23     8  2024    54     2     279.3     5.6      0.0    0.0    5.6    0.0      5.5      0.0   -9.90      0.0      0.0    100      0.3      0.3   100      0.3     0.3     100     20.0    1.54      0      0      0      0      0    93.0    93.0      0     1.01      0.3      0.3      0.3   100    35.0     7.710    -9.9    0.000    0.000     100        0.00    0.000    0.000     279.3    279.3    1.54   189.4     649.8     179.4     134.4      66.2      66.2      37.8    0.000     0.000     0.000     0.000     0.000    1.54     0.00    0.00      0   -9.90   -9.00       17.8       12.2       12.3       12.1       12.0       11.9       11.9       11.8       11.8       11.8       11.8       11.8        0.0        0.0        0.0        0.0        0.0        0.0        0.0        0.0        0.0        0.0        0.0        0.0      5.6       0.3      26.1      29.2      32.3    422.57
    24     8  2024    55     2     274.3     0.5      0.0    0.0    0.5    0.0      5.3      0.0   -9.90      0.0      0.0    100      0.2      0.2   100      0.2     0.2     100     19.0    1.56      0      0      0      0      0    93.3    93.3      0     1.01      0.2      0.2      0.2   100    35.0     8.064    -9.9    0.000    0.000     100        0.00    0.000    0.000     274.3    274.3    1.56   186.7     658.3     181.7     135.8      66.9      66.9      38.3    0.000     0.000     0.000     0.000     0.000    1.56     0.00    0.00      0   -9.90   -9.00       12.2       12.2       12.3       12.1       12.1       11.9       11.9       11.9       11.8       11.8       11.8       11.8        0.0        0.0        0.0        0.0        0.0        0.0        0.0        0.0        0.0        0.0        0.0        0.0      0.5       0.2      24.8      27.0      29.3    422.57
    25     8  2024    56     3     270.6     0.3      0.0    0.0    0.3    0.0      3.6      0.0   -9.90      0.0      0.0    100      0.3      0.3   100      0.3     0.3     100     19.9    1.58      0      0      0      0      0    93.5    93.5      0     1.01      0.3      0.3      0.3   100    35.0     8.420    -9.9    0.000    0.000     100        0.00    0.000    0.000     270.6    270.6    1.58   185.7     666.7     184.0     137.8      67.9      67.9      38.8    0.000     0.000     0.000     0.000     0.000    1.58     0.00    0.00      0   -9.90   -9.00       11.8       11.8       11.8       11.8       11.8       11.8       11.8       11.8       11.8       11.8       11.8       11.8        0.0        0.0        0.0        0.0        0.0        0.0        0.0        0.0        0.0        0.0        0.0        0.0      0.3       0.3      25.8      28.7      31.7    422.57
    26     8  2024    57     3     277.5     8.6      0.0    0.0    8.5    0.1      1.5      0.0   -9.90      0.0      0.0    100      0.2      0.2   100      0.2     0.2     100     19.7    1.60      0      0      0      0      0    93.7    93.7      0     1.01      0.2      0.2      0.2   100    35.0     8.775    -9.9    0.000    0.000     100        0.00    0.000    0.000     277.5    277.5    1.60   195.1     675.1     186.4     139.4      68.7      68.7      39.3    0.000     0.000     0.000     0.000     0.000    1.60     0.00    0.00      0   -9.90   -9.00       20.2       11.7       11.7       11.7       11.7       11.7       11.7       11.7       11.7       11.7       11.7       11.7        0.0        0.0        0.0        0.0        0.0        0.0        0.0        0.0        0.0        0.0        0.0        0.0      8.6       0.2      25.4      27.8      30.2    422.57
    27     8  2024    58     3     279.9     6.0      0.0    0.0    6.0    0.0      3.4      0.0   -9.90      0.0      0.0    100      0.2      0.2   100      0.2     0.2     100     20.2    1.62      0      0      0      0      0    93.9    93.9      0     1.02      0.2      0.2      0.2   100    35.0     9.131     1.5    0.137    0.153     100        1.01    0.000    0.000     279.9    279.9    1.62   199.5     683.5     188.7     141.1      69.5      69.5      39.8    0.000     0.000     0.000     0.000     0.000    1.62     0.00    0.00      0   -9.90   -9.00       18.4       12.3       12.5       12.1       12.0       11.9       11.8       11.8       11.8       11.8       11.8       11.8        0.0        0.0        0.0        0.0        0.0        0.0        0.0        0.0        0.0        0.0        0.0        0.0      6.0       0.2      26.4      28.7      31.1    422.57
    28     8  2024    59     3     274.8     0.5      0.0    0.0    0.5    0.0      5.3      0.0   -9.90      0.0      0.0    100      0.2      0.2   100      0.2     0.2     100     20.6    1.64      0      0      0      0      0    94.0    94.0      0     1.02      0.2      0.2      0.2   100    35.0     9.487     1.8    0.175    0.194     100        1.27    0.000    0.000     274.8    274.8    1.64   196.5     691.8     191.0     142.8      70.3      70.3      40.3    0.000     0.000     0.000     0.000     0.000    1.64     0.00    0.00      0   -9.90   -9.00       12.2       12.3       12.4       12.2       12.1       12.0       11.9       11.9       11.8       11.8       11.8       11.8        0.0        0.0        0.0        0.0        0.0        0.0        0.0        0.0        0.0        0.0        0.0        0.0      0.5       0.2      27.2      29.3      31.4    422.57
    29     8  2024    60     3     271.3     0.7      0.0    0.0    0.7    0.0      3.9      0.0   -9.90      0.0      0.0    100      0.2      0.2   100      0.2     0.2     100     20.1    1.66      0      0      0      0      0    95.2    95.2      0     1.02      0.2      0.2      0.2   100    35.0     9.846     2.3    0.222    0.247     100        1.58    0.000    0.000     271.3    271.3    1.66   195.6     700.1     193.3     144.5      71.2      71.2      40.8    0.000     0.000     0.000     0.000     0.000    1.66     0.00    0.00      0   -9.90   -9.00       12.3       11.8       11.9       11.9       11.8       11.8       11.8       11.8       11.8       11.8       11.8       11.8        0.0        0.0        0.0        0.0        0.0        0.0        0.0        0.0        0.0        0.0        0.0        0.0      0.7       0.2      26.2      28.4      30.6    422.57
    30     8  2024    61     3     270.6     1.3      0.0    0.0    1.3    0.0      1.8      0.0   -9.90      0.0      0.0    100      0.2      0.2   100      0.2     0.2     100     19.8    1.68     -9      0      0      0      0    95.3    95.3      0     1.02      0.2      0.2      0.2   100    35.0    10.205     2.8    0.281    0.312     100        1.97    0.000    0.000     270.6    270.6    1.68   197.4     708.4     195.5     146.3      72.1      72.1      41.3    0.000     0.000     0.000     0.000     0.000    1.68     0.00    0.00      0   -9.90   -9.00       12.9       11.8       11.8       11.8       11.7       11.7       11.7       11.7       11.7       11.7       11.7       11.7        0.0        0.0        0.0        0.0        0.0        0.0        0.0        0.0        0.0        0.0        0.0        0.0      1.3       0.2      25.7      28.2      30.8    422.57
    31     8  2024    62     3     270.6     1.2      0.0    0.0    1.2    0.0      1.0      0.0   -9.90      0.0      0.0    100      0.2      0.2   100      0.2     0.2     100     20.0    1.70     -9      0      0      0      0    95.4    95.4      0     1.02      0.2      0.2      0.2   100    35.0    10.564     3.3    0.354    0.393     100        2.44    0.000    0.000     270.6    270.6    1.70   199.7     716.6     197.8     147.9      72.9      72.9      41.8    0.000     0.000     0.000     0.000     0.000    1.70     0.00    0.00      0   -9.90   -9.00       12.9       11.8       11.8       11.8       11.7       11.7       11.7       11.7       11.7       11.7       11.7       11.7        0.0        0.0        0.0        0.0        0.0        0.0        0.0        0.0        0.0        0.0        0.0        0.0      1.2       0.2      26.0      28.2      30.3    422.57
     1     9  2024    63     3     272.2     2.7      0.0    0.0    2.7    0.0      0.9      0.0   -9.90      0.0      0.0    100      0.3      0.3   100      0.3     0.3     100     19.5    1.71     -9      0      0      0      0    95.5    95.5      0     1.02      0.3      0.3      0.3   100    35.0    10.921     4.1    0.444    0.493     100        3.01    0.000    0.000     272.2    272.2    1.71   203.6     724.8     200.1     149.7      73.8      73.8      42.3    0.000     0.000     0.000     0.000     0.000    1.71     0.00    0.00      0   -9.90   -9.00       14.4       11.8       11.8       11.8       11.8       11.7       11.7       11.7       11.7       11.7       11.7       11.7        0.0        0.0        0.0        0.0        0.0        0.0        0.0        0.0        0.0        0.0        0.0        0.0      2.7       0.2      25.0      28.0      31.0    422.57
     2     9  2024    64     3     286.7    17.5      0.0    0.0   16.3    1.2      1.5      0.0   -9.90      0.0      0.0    100      0.2      0.2   100      0.2     0.2     100     19.7    1.73     -9      0      0      0      0    95.6    95.6      0     1.02      0.2      0.2      0.2   100    35.0    11.278     4.9    0.555    0.616     100        3.70    0.000    0.000     286.7    286.7    1.73   220.3     732.9     202.3     151.4      74.6      74.6      42.7    0.000     0.000     0.000     0.000     0.000    1.73     0.00    0.00      0   -9.90   -9.00       28.4       11.9       12.0       11.8       11.8       11.8       11.8       11.7       11.7       11.7       11.7       11.7        0.0        0.0        0.0        0.0        0.0        0.0        0.0        0.0        0.0        0.0        0.0        0.0     17.5       0.2      25.5      28.1      30.8    422.57
     3     9  2024    65     3     279.2     0.3      0.0    0.0    0.3    0.0      7.6      0.0   -9.90      0.0      0.0    100      0.2      0.2   100      0.2     0.2     100     20.4    1.75     -9      0      0      0      0    95.6    95.6      0     1.02      0.2      0.2      0.2   100    35.0    11.634     5.9    0.689    0.766     100        4.53    0.000    0.000     279.2    279.2    1.75   214.4     741.1     204.6     152.9      75.4      75.4      43.2    0.000     0.000     0.000     0.000     0.000    1.75     0.00    0.00      0   -9.90   -9.00       12.6       12.7       13.2       12.6       12.3       12.1       12.0       12.0       11.9       11.9       11.8       11.8        0.0        0.0        0.0        0.0        0.0        0.0        0.0        0.0        0.0        0.0        0.0        0.0      0.3       0.2      26.8      28.9      30.9    422.57
     4     9  2024    66     3     273.4     0.9      0.0    0.0    0.9    0.0      6.5      0.0   -9.90      0.0      0.0    100      0.2      0.2   100      0.2     0.2     100     20.4    1.77     -9      0      0      0      0    95.7    95.7      0     1.01      0.2      0.2      0.2   100    35.0    11.989     7.1    0.852    0.947     100        5.52    0.000    0.000     273.4    273.4    1.77   211.0     749.2     206.8     154.5      76.2      76.2      43.7    0.000     0.000     0.000     0.000     0.000    1.77     0.00    0.00      0   -9.90   -9.00       12.5       11.8       12.1       12.0       12.0       11.9       11.9       11.9       11.8       11.8       11.8       11.8        0.0        0.0        0.0        0.0        0.0        0.0        0.0        0.0        0.0        0.0        0.0        0.0      0.9       0.2      26.7      28.8      30.8    422.57
     5     9  2024    67     3     272.2     2.1      0.0    0.0    2.1    0.0      3.2      0.0   -9.90      0.0      0.0    100      0.2      0.2   100      0.2     0.2     100     20.6    1.79     -9      0      0      0      0    95.7    95.7      0     1.01      0.2      0.2      0.2   100    35.0    12.343     8.5    1.046    1.162     100        6.69    0.000    0.000     272.2    272.2    1.79   212.3     757.2     209.0     156.1      76.9      76.9      44.2    0.000     0.000     0.000     0.000     0.000    1.79     0.00    0.00      0   -9.90   -9.00       13.8       11.8       11.8       11.8       11.8       11.8       11.8       11.8       11.8       11.8       11.8       11.7        0.0        0.0        0.0        0.0        0.0        0.0        0.0        0.0        0.0        0.0        0.0        0.0      2.1       0.2      27.1      28.7      30.2    422.57
     6     9  2024    68     3     270.2     0.0      0.0    0.0    0.0    0.0      1.8      0.0   -9.90      0.0      0.0    100      0.2      0.2   100      0.2     0.2     100     20.0    1.81     -9      0      0      0      0    95.8    95.8      0     1.01      0.2      0.2      0.2   100    35.0    12.697    10.0    1.269    1.410     100        8.00    0.000    0.000     270.2    270.2    1.81   212.7     765.3     211.2     157.9      77.9      77.9      44.6    0.000     0.000     0.000     0.000     0.000    1.81     0.00    0.00      0   -9.90   -9.00       11.8       11.9       11.9       11.8       11.8       11.8       11.8       11.7       11.7       11.7       11.7       11.7        0.0        0.0        0.0        0.0        0.0        0.0        0.0        0.0        0.0        0.0        0.0        0.0      0.0       0.2      26.0      28.3      30.5    422.57
     7     9  2024    69     4     269.1     0.1      0.0    0.0    0.1    0.0      1.0      0.0   -9.90      0.0      0.0    100      0.2      0.2   100      0.2     0.2     100     19.8    1.83     -9      0      0      0      0    95.8    95.8      0     1.01      0.2      0.2      0.2   100    35.0    13.049    11.5    1.502    1.669     100        9.33    0.000    0.000     269.1    269.1    1.83   213.9     773.3     213.5     159.7      78.8      78.8      45.1    0.000     0.000     0.000     0.000     0.000    1.83     0.00    0.00      0   -9.90   -9.00       11.6       11.7       11.7       11.7       11.7       11.7       11.7       11.7       11.7       11.7       11.7       11.7        0.0        0.0        0.0        0.0        0.0        0.0        0.0        0.0        0.0        0.0        0.0        0.0      0.1       0.2      25.5      28.1      30.6    422.57
     8     9  2024    70     4     269.0     0.6      0.0    0.0    0.6    0.0      0.4      0.0   -9.90      0.0      0.0    100      0.3      0.3   100      0.3     0.3     100     19.6    1.85     -9      0      0      0      0    95.8    95.8      0     1.00      0.3      0.3      0.3   100    35.0    13.401    13.0    1.747    1.941     100       10.67    0.000    0.000     269.0    269.0    1.85   216.0     781.3     215.7     161.6      79.7      79.7      45.6    0.000     0.000     0.000     0.000     0.000    1.85     0.00    0.00      0   -9.90   -9.00       11.9       11.7       11.7       11.7       11.7       11.7       11.7       11.7       11.7       11.7       11.7       11.7        0.0        0.0        0.0        0.0        0.0        0.0        0.0        0.0        0.0        0.0        0.0        0.0      0.6       0.3      25.2      28.4      31.7    422.57
     9     9  2024    71     4     271.7     3.1      0.0    0.0    3.1    0.0      0.2      0.0   -9.90      0.0      0.0    100      0.2      0.2   100      0.2     0.2     100     18.9    1.87     -9      0      0      0      0    95.9    95.9      0     1.00      0.2      0.2      0.2   100    35.0    13.751    14.6    2.001    2.224     100       12.11    0.000    0.000     271.7    271.7    1.87   220.9     789.2     217.9     162.5      80.1      80.1      46.1    0.000     0.000     0.000     0.000     0.000    1.87     0.00    0.00      0   -9.90   -9.00       14.7       11.7       11.7       11.7       11.7       11.7       11.7       11.7       11.7       11.7       11.7       11.7        0.0        0.0        0.0        0.0        0.0        0.0        0.0        0.0        0.0        0.0        0.0        0.0      3.1       0.2      25.6      26.9      28.2    422.57
    10     9  2024    72     4     283.3    13.3      0.0    0.0   12.8    0.5      1.1      0.0   -9.90      0.0      0.0    100      0.2      0.2   100      0.2     0.2     100     19.0    1.89     -9      0      0      0      0    95.9    95.9      0     1.00      0.2      0.2      0.2   100    35.0    14.101    16.1    2.267    2.518     100       13.56    0.000    0.000     283.3    283.3    1.89   234.6     797.2     220.0     164.3      81.0      81.0      46.5    0.000     0.000     0.000     0.000     0.000    1.89     0.00    0.00      0   -9.90   -9.00       24.9       11.9       12.0       11.8       11.8       11.8       11.7       11.7       11.7       11.7       11.7       11.7        0.0        0.0        0.0        0.0        0.0        0.0        0.0        0.0        0.0        0.0        0.0        0.0     13.3       0.2      25.2      27.0      28.7    422.57
    11     9  2024    73     4     285.9     8.9      0.0    0.0    8.8    0.1      5.9      0.0   -9.90      0.0      0.0    100      0.2      0.2   100      0.2     0.2     100     19.9    1.90     -9      0      0      0      0    95.9    95.9      0     0.99      0.2      0.2      0.2   100    35.0    14.449    17.6    2.542    2.825     100       15.00    0.000    0.000     285.9    285.9    1.90   239.2     805.1     222.2     166.2      82.0      82.0      47.0    0.000     0.000     0.000     0.000     0.000    1.90     0.00    0.00      0   -9.90   -9.00       21.5       12.6       12.9       12.4       12.2       12.1       12.0       11.9       11.9       11.8       11.8       11.8        0.0        0.0        0.0        0.0        0.0        0.0        0.0        0.0        0.0        0.0        0.0        0.0      8.9       0.2      25.7      28.2      30.7    422.57
    12     9  2024    74     4     281.1     4.0      0.0    0.0    4.0    0.0      8.6      0.0   -9.90      0.0      0.0    100      0.2      0.2   100      0.2     0.2     100     19.6    1.92     -9      0      0      0      0    95.9    95.9      0     0.99      0.2      0.2      0.2   100    35.0    14.797    19.1    2.828    3.143     100       16.47    0.000    0.000     281.1    281.1    1.92   236.3     813.0     224.4     167.8      82.7      82.7      47.5    0.000     0.000     0.000     0.000     0.000    1.92     0.00    0.00      0   -9.90   -9.00       16.1       12.5       12.7       12.4       12.2       12.1       12.0       12.0       11.9       11.9       11.9       11.8        0.0        0.0        0.0        0.0        0.0        0.0        0.0        0.0        0.0        0.0        0.0        0.0      4.0       0.2      25.4      27.6      29.9    422.57
    13     9  2024    75     4     274.1     0.5      0.0    0.0    0.5    0.0      7.1      0.0   -9.90      0.0      0.0    100      0.3      0.3   100      0.3     0.3     100     19.5    1.94     -9      0      0      0      0    95.9    95.9      0     0.99      0.3      0.3      0.3   100    35.0    15.144    20.6    3.125    3.472     100       17.93    0.000    0.000     274.1    274.1    1.94   231.7     820.8     226.6     169.7      83.7      83.7      47.9    0.000     0.000     0.000     0.000     0.000    1.94     0.00    0.00      0   -9.90   -9.00       12.0       12.1       12.2       12.1       12.1       12.0       11.9       11.9       11.9       11.8       11.8       11.8        0.0        0.0        0.0        0.0        0.0        0.0        0.0        0.0        0.0        0.0        0.0        0.0      0.5       0.3      25.1      28.1      31.1    422.57
    14     9  2024    76     4     272.4     2.3      0.0    0.0    2.3    0.0      3.7      0.0   -9.90      0.0      0.0    100      0.2      0.2   100      0.2     0.2     100     19.9    1.96     -9      0     -9      0      0    95.3    95.3      0     0.98      0.2      0.2      0.2   100    35.0    15.486    22.2    3.431    3.812     100       19.44    0.000    0.000     272.4    272.4    1.96   232.4     828.6     228.7     171.0      84.3      84.3      48.4    0.000     0.000     0.000     0.000     0.000    1.96     0.00    0.00      0   -9.90   -9.00       13.8       11.8       11.8       11.8       11.8       11.8       11.8       11.8       11.8       11.8       11.8       11.8        0.0        0.0        0.0        0.0        0.0        0.0        0.0        0.0        0.0        0.0        0.0        0.0      2.3       0.2      25.7      28.1      30.4    422.57
    15     9  2024    77     4     279.6     9.5      0.0    0.0    9.4    0.1      2.0      0.0   -9.90      0.0      0.0    100      0.2      0.2   100      0.2     0.2     100     19.6    1.98     -9      0     -9      0      0    94.6    94.6      0     0.96      0.2      0.2      0.2   100    35.0    15.823    23.7    3.746    4.162     100       20.96    0.000    0.000     279.6    279.6    1.98   241.8     836.4     230.9     172.7      85.2      85.2      48.8    0.000     0.000     0.000     0.000     0.000    1.98     0.00    0.00      0   -9.90   -9.00       21.3       11.9       11.9       11.8       11.8       11.8       11.8       11.7       11.7       11.7       11.7       11.7        0.0        0.0        0.0        0.0        0.0        0.0        0.0        0.0        0.0        0.0        0.0        0.0      9.5       0.2      25.2      27.6      29.9    422.57
    16     9  2024    78     4     283.6     8.7      0.0    0.0    8.6    0.1      4.3      0.0   -9.90      0.0      0.0    100      0.2      0.2   100      0.2     0.2     100     19.4    2.00     -9      0     -9      0      0    93.9    93.9      0     0.95      0.2      0.2      0.2   100    35.0    16.155    25.2    4.070    4.523     100       22.56    0.000    0.000     283.6    283.6    2.00   247.9     844.2     233.0     174.0      85.8      85.8      49.3    0.000     0.000     0.000     0.000     0.000    2.00     0.00    0.00      0   -9.90   -9.00       21.2       12.4       12.6       12.2       12.0       12.0       11.9       11.8       11.8       11.8       11.8       11.8        0.0        0.0        0.0        0.0        0.0        0.0        0.0        0.0        0.0        0.0        0.0        0.0      8.7       0.2      25.8      27.4      28.9    422.57
    17     9  2024    79     4     304.5    34.1      0.0    0.0   28.2    6.0      7.1      0.0   -9.90      0.0      0.0    100      0.1      0.1   100      0.1     0.1     100     17.9    2.01     -9      0     -9      0      0    93.0    93.0      0     0.93      0.1      0.1      0.1   100    35.0    16.481    26.7    4.403    4.892     100       24.21    0.000    0.000     304.5    304.5    2.01   270.8     852.0     235.2     175.3      86.4      86.4      49.8    0.000     0.000     0.000     0.000     0.000    2.01     0.00    0.00      0   -9.90   -9.00       40.5       12.5       12.7       12.3       12.3       12.0       12.0       12.0       11.9       11.9       11.8       11.8        0.0        0.0        0.0        0.0        0.0        0.0        0.0        0.0        0.0        0.0        0.0        0.0     34.1       0.1      24.8      25.9      27.0    422.57
    18     9  2024    80     4     314.5    34.3      0.0    0.0   28.2    6.0     18.0      0.0   -9.90      0.0      0.0    100      0.2      0.2   100      0.2     0.2     100     19.5    2.03     -9      0     -9      0      0    92.0    92.0      0     0.91      0.2      0.2      0.2   100    35.0    16.801    28.2    4.744    5.271     100       25.75    0.000    0.000     314.5    314.5    2.03   282.5     859.7     237.3     177.6      87.6      87.6      50.2    0.000     0.000     0.000     0.000     0.000    2.03     0.00    0.00      0   -9.90   -9.00       40.5       12.8       14.2       13.4       12.9       12.6       12.4       12.3       12.2       12.1       12.0       12.0        0.0        0.0        0.0        0.0        0.0        0.0        0.0        0.0        0.0        0.0        0.0        0.0     34.3       0.2      25.0      27.9      30.8    422.57
    19     9  2024    81     4     294.1     5.0      0.0    0.0    5.0    0.0     25.3      0.0   -9.90      0.0      0.0    100      0.2      0.2   100      0.2     0.2     100     19.8    2.05     -9      0     -9      0      0    90.9    90.9      0     0.89      0.2      0.2      0.2   100    35.0    17.113    29.8    5.092    5.658     100       27.32    0.000    0.000     294.1    294.1    2.05   264.0     867.4     239.4     179.1      88.3      88.3      50.7    0.000     0.000     0.000     0.000     0.000    2.05     0.00    0.00      0   -9.90   -9.00       16.9       12.8       14.2       13.5       13.1       12.8       12.6       12.4       12.3       12.2       12.1       12.1        0.0        0.0        0.0        0.0        0.0        0.0        0.0        0.0        0.0        0.0        0.0        0.0      5.0       0.2      25.6      28.0      30.5    422.57
    20     9  2024    82     4     278.9     1.5      0.0    0.0    1.5    0.0     16.5      0.0   -9.90      0.0      0.0    100      0.2      0.2   100      0.2     0.2     100     19.7    2.07     -9      0     -9      0      0    89.6    89.6      0     0.87      0.2      0.2      0.2   100    35.0    17.418    31.3    5.448    6.053     100       28.87    0.000    0.000     278.9    278.9    2.07   251.3     875.1     241.5     180.8      89.2      89.2      51.1    0.000     0.000     0.000     0.000     0.000    2.07     0.00    0.00      0   -9.90   -9.00       13.2       12.2       12.3       12.3       12.2       12.2       12.1       12.1       12.0       12.0       12.0       11.9        0.0        0.0        0.0        0.0        0.0        0.0        0.0        0.0        0.0        0.0        0.0        0.0      1.5       0.2      25.4      28.3      31.2    422.57
    21     9  2024    83     4     273.2     1.5      0.0    0.0    1.5    0.0      6.9      0.0   -9.90      0.0      0.0    100      0.2      0.2   100      0.2     0.2     100     19.8    2.09     -9      0     -9      0      0    88.2    88.2      0     0.84      0.2      0.2      0.2   100    35.0    17.714    32.8    5.810    6.455     100       30.43    0.000    0.000     273.2    273.2    2.09   248.1     882.8     243.7     182.4      90.0      90.0      51.6    0.000     0.000     0.000     0.000     0.000    2.09     0.00    0.00      0   -9.90   -9.00       13.2       11.9       11.9       11.9       11.9       11.9       11.8       11.8       11.8       11.8       11.8       11.8        0.0        0.0        0.0        0.0        0.0        0.0        0.0        0.0        0.0        0.0        0.0        0.0      1.5       0.2      25.6      28.4      31.3    422.57
    22     9  2024    84     4     286.5    17.5      0.0    0.0   16.3    1.2      2.8      0.0   -9.90      0.0      0.0    100      0.2      0.2   100      0.2     0.2     100     19.6    2.10     -9      0     -9      0      0    86.6    86.6      0     0.82      0.2      0.2      0.2   100    35.0    18.001    34.3    6.177    6.864     100       32.04    0.000    0.000     286.5    286.5    2.10   263.6     890.4     245.8     183.7      90.6      90.6      52.0    0.000     0.000     0.000     0.000     0.000    2.10     0.00    0.00      0   -9.90   -9.00       28.3       11.8       11.9       11.8       11.8       11.8       11.8       11.8       11.8       11.7       11.7       11.7        0.0        0.0        0.0        0.0        0.0        0.0        0.0        0.0        0.0        0.0        0.0        0.0     17.5       0.2      25.6      27.6      29.6    422.57
    23     9  2024    85     4     287.5     8.8      0.0    0.0    8.7    0.1      7.5      0.0   -9.90      0.0      0.0    100      0.2      0.2   100      0.2     0.2     100     19.8    2.12     -9      0     -9      0      0    84.8    84.8      0     0.79      0.2      0.2      0.2   100    35.0    18.277    35.8    6.550    7.278     100       33.62    0.000    0.000     287.5    287.5    2.12   266.6     898.0     247.9     185.5      91.5      91.5      52.5    0.000     0.000     0.000     0.000     0.000    2.12     0.00    0.00      0   -9.90   -9.00       21.3       12.7       13.2       12.6       12.3       12.1       12.0       11.9       11.9       11.9       11.8       11.8        0.0        0.0        0.0        0.0        0.0        0.0        0.0        0.0        0.0        0.0        0.0        0.0      8.8       0.2      25.6      28.3      30.9    422.57
    24     9  2024    86     4     282.5     4.9      0.0    0.0    4.9    0.0      9.7      0.0   -9.90      0.0      0.0    100      0.2      0.2   100      0.2     0.2     100     19.4    2.14     -9      0     -9      0      0    82.8    82.8      0     0.76      0.2      0.2      0.2   100    35.0    18.542    37.4    6.927    7.697     100       35.17    0.000    0.000     282.5    282.5    2.14   263.6     905.6     250.0     187.1      92.3      92.3      52.9    0.000     0.000     0.000     0.000     0.000    2.14     0.00    0.00      0   -9.90   -9.00       17.2       12.5       12.7       12.4       12.2       12.1       12.0       12.0       11.9       11.9       11.9       11.9        0.0        0.0        0.0        0.0        0.0        0.0        0.0        0.0        0.0        0.0        0.0        0.0      4.9       0.2      24.7      27.6      30.6    422.57
    25     9  2024    87     4     299.0    28.2      0.0    0.0   24.3    4.0      7.6      0.0   -9.90      0.0      0.0    100      0.2      0.2   100      0.2     0.2     100     19.2    2.16     -9      0     -9      0      0    80.5    80.5      0     0.72      0.2      0.2      0.2   100    35.0    18.795    38.9    7.307    8.119     100       36.75    0.000    0.000     299.0    299.0    2.16   282.3     913.2     252.1     188.6      93.0      93.0      53.4    0.000     0.000     0.000     0.000     0.000    2.16     0.00    0.00      0   -9.90   -9.00       36.9       12.2       12.3       12.1       12.0       12.0       11.9       11.9       11.9       11.8       11.8       11.8        0.0        0.0        0.0        0.0        0.0        0.0        0.0        0.0        0.0        0.0        0.0        0.0     28.2       0.2      24.7      27.2      29.8    422.57
[...]
    10    12  2025    -9     0     263.1     0.0      0.0    0.0    0.0    0.0      0.0      0.0   -9.90      0.3      0.2     61      0.0      0.0   100      0.3     0.2      61     17.8    2.28     -9     -9     -9      0     -9     0.0     0.0      0    -9.00      0.0      0.0      0.0   100    35.1    20.220    48.0    9.706   10.784     100       43.95    0.000    0.000     263.1    263.1    2.28   261.0     965.7     266.5     199.8      98.8      98.6      56.5    0.000     0.000     0.000     0.000     0.000    2.28     0.00    0.00      0   -9.90   -9.00        6.1       11.7       11.7       11.7       11.7       11.7       11.7       11.7       11.7       11.7       11.7       11.7        0.0        0.0        0.0        0.0        0.0        0.0        0.0        0.0        0.0        0.0        0.0        0.0      0.0       0.3      21.7      26.6      31.6    424.57
    11    12  2025    -9     0     262.9     0.0      0.0    0.0    0.0    0.0      0.0      0.0   -9.90      0.4      0.2     56      0.0      0.0   100      0.4     0.2      56     17.2    2.28     -9     -9     -9      0     -9     0.0     0.0      0    -9.00      0.0      0.0      0.0   100    35.1    20.220    48.0    9.706   10.784     100       43.95    0.000    0.000     262.9    262.9    2.28   260.8     965.7     266.5     199.8      98.9      98.6      56.5    0.000     0.000     0.000     0.000     0.000    2.28     0.00    0.00      0   -9.90   -9.00        5.9       11.7       11.7       11.7       11.7       11.7       11.7       11.7       11.7       11.7       11.7       11.7        0.0        0.0        0.0        0.0        0.0        0.0        0.0        0.0        0.0        0.0        0.0        0.0      0.0       0.3      20.3      25.8      31.3    424.57
    12    12  2025    -9     0     262.7     0.0      0.0    0.0    0.0    0.0      0.0      0.0   -9.90      0.4      0.2     52      0.0      0.0   100      0.4     0.2      52     16.5    2.28     -9     -9     -9      0     -9     0.0     0.0      0    -9.00      0.0      0.0      0.0   100    35.1    20.220    48.0    9.706   10.784     100       43.95    0.000    0.000     262.7    262.7    2.28   260.6     965.7     266.5     199.8      98.9      98.6      56.5    0.000     0.000     0.000     0.000     0.000    2.28     0.00    0.00      0   -9.90   -9.00        5.7       11.7       11.7       11.7       11.7       11.7       11.7       11.7       11.7       11.7       11.7       11.7        0.0        0.0        0.0        0.0        0.0        0.0        0.0        0.0        0.0        0.0        0.0        0.0      0.0       0.3      19.1      25.2      31.3    424.57
    13    12  2025    -9     0     262.5     0.0      0.0    0.0    0.0    0.0      0.0      0.0   -9.90      0.3      0.2     49      0.0      0.0   100      0.3     0.2      49     16.2    2.28     -9     -9     -9      0     -9     0.0     0.0      0    -9.00      0.0      0.0      0.0   100    35.1    20.220    48.0    9.706   10.784     100       43.95    0.000    0.000     262.5    262.5    2.28   260.5     965.7     266.5     199.8      98.7      98.6      56.5    0.000     0.000     0.000     0.000     0.000    2.28     0.00    0.00      0   -9.90   -9.00        5.5       11.7       11.7       11.7       11.7       11.7       11.7       11.7       11.7       11.7       11.7       11.7        0.0        0.0        0.0        0.0        0.0        0.0        0.0        0.0        0.0        0.0        0.0        0.0      0.0       0.3      19.3      24.2      29.2    424.57
    14    12  2025    -9     0     262.4     0.0      0.0    0.0    0.0    0.0      0.0      0.0   -9.90      0.3      0.1     47      0.0      0.0   100      0.3     0.1      47     13.9    2.28     -9     -9     -9      0     -9     0.0     0.0      0    -9.00      0.0      0.0      0.0   100    35.1    20.220    48.0    9.706   10.784     100       43.95    0.000    0.000     262.4    262.4    2.28   260.3     965.7     266.5     199.8      98.6      98.6      56.5    0.000     0.000     0.000     0.000     0.000    2.28     0.00    0.00      0   -9.90   -9.00        5.4       11.7       11.7       11.7       11.7       11.7       11.7       11.7       11.7       11.7       11.7       11.7        0.0        0.0        0.0        0.0        0.0        0.0        0.0        0.0        0.0        0.0        0.0        0.0      0.0       0.3      17.2      21.9      26.6    424.57
    15    12  2025    -9     0     262.2     0.0      0.0    0.0    0.0    0.0      0.0      0.0   -9.90      0.3      0.2     44      0.0      0.0   100      0.3     0.2      44     14.1    2.28     -9     -9     -9      0     -9     0.0     0.0      0    -9.00      0.0      0.0      0.0   100    35.1    20.220    48.0    9.706   10.784     100       43.95    0.000    0.000     262.2    262.2    2.28   260.2     965.7     266.5     199.8      98.8      98.6      56.5    0.000     0.000     0.000     0.000     0.000    2.28     0.00    0.00      0   -9.90   -9.00        5.2       11.7       11.7       11.7       11.7       11.7       11.7       11.7       11.7       11.7       11.7       11.7        0.0        0.0        0.0        0.0        0.0        0.0        0.0        0.0        0.0        0.0        0.0        0.0      0.0       0.3      16.2      22.1      28.1    424.57
    16    12  2025    -9     0     262.1     0.0      0.0    0.0    0.0    0.0      0.0      0.0   -9.90      0.3      0.1     42      0.0      0.0   100      0.3     0.1      42     16.1    2.28     -9     -9     -9      0     -9     0.0     0.0      0    -9.00      0.0      0.0      0.0   100    35.1    20.220    48.0    9.706   10.784     100       43.95    0.000    0.000     262.1    262.1    2.28   260.0     965.7     266.5     199.8      98.8      98.6      56.5    0.000     0.000     0.000     0.000     0.000    2.28     0.00    0.00      0   -9.90   -9.00        5.1       11.7       11.7       11.7       11.7       11.7       11.7       11.7       11.7       11.7       11.7       11.7        0.0        0.0        0.0        0.0        0.0        0.0        0.0        0.0        0.0        0.0        0.0        0.0      0.0       0.3      18.8      24.1      29.3    424.57
    17    12  2025    -9     0     262.0     0.0      0.0    0.0    0.0    0.0      0.0      0.0   -9.90      0.3      0.1     40      0.0      0.0   100      0.3     0.1      40     16.2    2.28     -9     -9     -9      0     -9     0.0     0.0      0    -9.00      0.0      0.0      0.0   100    35.1    20.220    48.0    9.706   10.784     100       43.95    0.000    0.000     262.0    262.0    2.28   259.9     965.7     266.5     199.8      98.6      98.6      56.5    0.000     0.000     0.000     0.000     0.000    2.28     0.00    0.00      0   -9.90   -9.00        4.9       11.7       11.7       11.7       11.7       11.7       11.7       11.7       11.7       11.7       11.7       11.7        0.0        0.0        0.0        0.0        0.0        0.0        0.0        0.0        0.0        0.0        0.0        0.0      0.0       0.3      19.9      24.2      28.5    424.57
    18    12  2025    -9     0     261.8     0.0      0.0    0.0    0.0    0.0      0.0      0.0   -9.90      0.3      0.1     38      0.0      0.0   100      0.3     0.1      38     15.1    2.28     -9     -9     -9      0     -9     0.0     0.0      0    -9.00      0.0      0.0      0.0   100    35.1    20.220    48.0    9.706   10.784     100       43.95    0.000    0.000     261.8    261.8    2.28   259.8     965.7     266.5     199.8      98.6      98.6      56.5    0.000     0.000     0.000     0.000     0.000    2.28     0.00    0.00      0   -9.90   -9.00        4.8       11.7       11.7       11.7       11.7       11.7       11.7       11.7       11.7       11.7       11.7       11.7        0.0        0.0        0.0        0.0        0.0        0.0        0.0        0.0        0.0        0.0        0.0        0.0      0.0       0.3      19.0      23.1      27.2    424.57
    19    12  2025    -9     0     261.7     0.0      0.0    0.0    0.0    0.0      0.0      0.0   -9.90      0.4      0.1     37      0.0      0.0   100      0.4     0.1      37     14.6    2.28     -9     -9     -9      0     -9     0.0     0.0      0    -9.00      0.0      0.0      0.0   100    35.1    20.220    48.0    9.706   10.784     100       43.95    0.000    0.000     261.7    261.7    2.28   259.7     965.7     266.5     199.8      98.8      98.6      56.5    0.000     0.000     0.000     0.000     0.000    2.28     0.00    0.00      0   -9.90   -9.00        4.7       11.7       11.7       11.7       11.7       11.7       11.7       11.7       11.7       11.7       11.7       11.7        0.0        0.0        0.0        0.0        0.0        0.0        0.0        0.0        0.0        0.0        0.0        0.0      0.0       0.3      16.6      22.6      28.5    424.57
    20    12  2025    -9     0     261.6     0.0      0.0    0.0    0.0    0.0      0.0      0.0   -9.90      0.4      0.1     35      0.0      0.0   100      0.4     0.1      35     16.1    2.28     -9     -9     -9      0     -9     0.0     0.0      0    -9.00      0.0      0.0      0.0   100    35.1    20.220    48.0    9.706   10.784     100       43.95    0.000    0.000     261.6    261.6    2.28   259.5     965.7     266.5     199.8      98.9      98.6      56.5    0.000     0.000     0.000     0.000     0.000    2.28     0.00    0.00      0   -9.90   -9.00        4.6       11.7       11.7       11.7       11.7       11.7       11.7       11.7       11.7       11.7       11.7       11.7        0.0        0.0        0.0        0.0        0.0        0.0        0.0        0.0        0.0        0.0        0.0        0.0      0.0       0.3      18.2      24.2      30.1    424.57
    21    12  2025    -9     0     261.5     0.0      0.0    0.0    0.0    0.0      0.0      0.0   -9.90      0.4      0.1     33      0.0      0.0   100      0.4     0.1      33     16.1    2.28     -9     -9     -9      0     -9     0.0     0.0      0    -9.00      0.0      0.0      0.0   100    35.1    20.220    48.0    9.706   10.784     100       43.95    0.000    0.000     261.5    261.5    2.28   259.4     965.7     266.5     199.8      98.9      98.6      56.5    0.000     0.000     0.000     0.000     0.000    2.28     0.00    0.00      0   -9.90   -9.00        4.4       11.7       11.7       11.7       11.7       11.7       11.7       11.7       11.7       11.7       11.7       11.7        0.0        0.0        0.0        0.0        0.0        0.0        0.0        0.0        0.0        0.0        0.0        0.0      0.0       0.3      18.2      24.5      30.7    424.57
    22    12  2025    -9     0     261.3     0.0      0.0    0.0    0.0    0.0      0.0      0.0   -9.90      0.4      0.1     32      0.0      0.0   100      0.4     0.1      32     16.2    2.28     -9     -9     -9      0     -9     0.0     0.0      0    -9.00      0.0      0.0      0.0   100    35.1    20.220    48.0    9.706   10.784     100       43.95    0.000    0.000     261.3    261.3    2.28   259.3     965.7     266.5     199.8      98.9      98.6      56.5    0.000     0.000     0.000     0.000     0.000    2.28     0.00    0.00      0   -9.90   -9.00        4.3       11.7       11.7       11.7       11.7       11.7       11.7       11.7       11.7       11.7       11.7       11.7        0.0        0.0        0.0        0.0        0.0        0.0        0.0        0.0        0.0        0.0        0.0        0.0      0.0       0.3      18.4      24.4      30.4    424.57
    23    12  2025    -9     0     261.2     0.0      0.0    0.0    0.0    0.0      0.0      0.0   -9.90      0.4      0.1     31      0.0      0.0   100      0.4     0.1      31     16.4    2.28     -9     -9     -9      0     -9     0.0     0.0      0    -9.00      0.0      0.0      0.0   100    35.1    20.220    48.0    9.706   10.784     100       43.95    0.000    0.000     261.2    261.2    2.28   259.2     965.7     266.5     199.8      98.8      98.6      56.5    0.000     0.000     0.000     0.000     0.000    2.28     0.00    0.00      0   -9.90   -9.00        4.2       11.7       11.7       11.7       11.7       11.7       11.7       11.7       11.7       11.7       11.7       11.7        0.0        0.0        0.0        0.0        0.0        0.0        0.0        0.0        0.0        0.0        0.0        0.0      0.0       0.3      18.9      24.5      30.2    424.57
    24    12  2025    -9     0     261.1     0.0      0.0    0.0    0.0    0.0      0.0      0.0   -9.90      0.3      0.1     30      0.0      0.0   100      0.3     0.1      30     16.8    2.28     -9     -9     -9      0     -9     0.0     0.0      0    -9.00      0.0      0.0      0.0   100    35.1    20.220    48.0    9.706   10.784     100       43.95    0.000    0.000     261.1    261.1    2.28   259.1     965.7     266.5     199.8      98.7      98.6      56.5    0.000     0.000     0.000     0.000     0.000    2.28     0.00    0.00      0   -9.90   -9.00        4.1       11.7       11.7       11.7       11.7       11.7       11.7       11.7       11.7       11.7       11.7       11.7        0.0        0.0        0.0        0.0        0.0        0.0        0.0        0.0        0.0        0.0        0.0        0.0      0.0       0.3      19.9      24.8      29.8    424.57
    25    12  2025    -9     0     261.0     0.0      0.0    0.0    0.0    0.0      0.0      0.0   -9.90      0.4      0.1     28      0.0      0.0   100      0.4     0.1      28     16.3    2.28     -9     -9     -9      0     -9     0.0     0.0      0    -9.00      0.0      0.0      0.0   100    35.1    20.220    48.0    9.706   10.784     100       43.95    0.000    0.000     261.0    261.0    2.28   259.0     965.7     266.5     199.8      98.8      98.6      56.5    0.000     0.000     0.000     0.000     0.000    2.28     0.00    0.00      0   -9.90   -9.00        4.0       11.7       11.7       11.7       11.7       11.7       11.7       11.7       11.7       11.7       11.7       11.7        0.0        0.0        0.0        0.0        0.0        0.0        0.0        0.0        0.0        0.0        0.0        0.0      0.0       0.3      18.6      24.3      30.0    424.57
    26    12  2025    -9     0     260.9     0.0      0.0    0.0    0.0    0.0      0.0      0.0   -9.90      0.4      0.1     27      0.0      0.0   100      0.4     0.1      27     16.1    2.28     -9     -9     -9      0     -9     0.0     0.0      0    -9.00      0.0      0.0      0.0   100    35.1    20.220    48.0    9.706   10.784     100       43.95    0.000    0.000     260.9    260.9    2.28   258.9     965.7     266.5     199.8      98.8      98.6      56.5    0.000     0.000     0.000     0.000     0.000    2.28     0.00    0.00      0   -9.90   -9.00        3.9       11.7       11.7       11.7       11.7       11.7       11.7       11.7       11.7       11.7       11.7       11.7        0.0        0.0        0.0        0.0        0.0        0.0        0.0        0.0        0.0        0.0        0.0        0.0      0.0       0.3      18.5      24.1      29.7    424.57
    27    12  2025    -9     0     260.9     0.0      0.0    0.0    0.0    0.0      0.0      0.0   -9.90      0.4      0.1     34      0.0      0.0   100      0.4     0.1      34     15.6    2.28     -9     -9     -9      0     -9     0.0     0.0      0    -9.00      0.0      0.0      0.0   100    35.1    20.220    48.0    9.706   10.784     100       43.95    0.000    0.000     260.9    260.9    2.28   258.8     965.7     266.5     199.8      98.9      98.6      56.5    0.000     0.000     0.000     0.000     0.000    2.28     0.00    0.00      0   -9.90   -9.00        3.8       11.7       11.7       11.7       11.7       11.7       11.7       11.7       11.7       11.7       11.7       11.7        0.0        0.0        0.0        0.0        0.0        0.0        0.0        0.0        0.0        0.0        0.0        0.0      0.0       0.3      17.1      23.7      30.2    424.57
    28    12  2025    -9     0     260.8     0.0      0.0    0.0    0.0    0.0      0.0      0.0   -9.90      0.4      0.1     26      0.0      0.0   100      0.4     0.1      26     15.9    2.28     -9     -9     -9      0     -9     0.0     0.0      0    -9.00      0.0      0.0      0.0   100    35.1    20.220    48.0    9.706   10.784     100       43.95    0.000    0.000     260.8    260.8    2.28   258.7     965.7     266.5     199.8      99.0      98.6      56.5    0.000     0.000     0.000     0.000     0.000    2.28     0.00    0.00      0   -9.90   -9.00        3.7       11.7       11.7       11.7       11.7       11.7       11.7       11.7       11.7       11.7       11.7       11.7        0.0        0.0        0.0        0.0        0.0        0.0        0.0        0.0        0.0        0.0        0.0        0.0      0.0       0.3      17.7      24.6      31.4    424.57
    29    12  2025    -9     0     260.7     0.0      0.0    0.0    0.0    0.0      0.0      0.0   -9.90      0.4      0.1     25      0.0      0.0   100      0.4     0.1      25     16.3    2.28     -9     -9     -9      0     -9     0.0     0.0      0    -9.00      0.0      0.0      0.0   100    35.1    20.220    48.0    9.706   10.784     100       43.95    0.000    0.000     260.7    260.7    2.28   258.6     965.7     266.5     199.8      99.1      98.6      56.5    0.000     0.000     0.000     0.000     0.000    2.28     0.00    0.00      0   -9.90   -9.00        3.6       11.7       11.7       11.7       11.7       11.7       11.7       11.7       11.7       11.7       11.7       11.7        0.0        0.0        0.0        0.0        0.0        0.0        0.0        0.0        0.0        0.0        0.0        0.0      0.0       0.4      18.5      25.7      32.9    424.57
    30    12  2025    -9     0     260.6     0.0      0.0    0.0    0.0    0.0      0.0      0.0   -9.90      0.4      0.1     24      0.0      0.0   100      0.4     0.1      24     16.9    2.28     -9     -9     -9      0     -9     0.0     0.0      0    -9.00      0.0      0.0      0.0   100    35.1    20.220    48.0    9.706   10.784     100       43.95    0.000    0.000     260.6    260.6    2.28   258.5     965.7     266.5     199.8      99.0      98.6      56.5    0.000     0.000     0.000     0.000     0.000    2.28     0.00    0.00      0   -9.90   -9.00        3.5       11.7       11.7       11.7       11.7       11.7       11.7       11.7       11.7       11.7       11.7       11.7        0.0        0.0        0.0        0.0        0.0        0.0        0.0        0.0        0.0        0.0        0.0        0.0      0.0       0.4      19.8      26.2      32.7    424.57
    31    12  2025    -9     0     260.5     0.0      0.0    0.0    0.0    0.0      0.0      0.0   -9.90      0.4      0.1     23      0.0      0.0   100      0.4     0.1      23     17.2    2.28     -9     -9     -9      0     -9     0.0     0.0      0    -9.00      0.0      0.0      0.0   100    35.1    20.220    48.0    9.706   10.784     100       43.95    0.000    0.000     260.5    260.5    2.28   258.4     965.7     266.5     199.8      99.0      98.6      56.5    0.000     0.000     0.000     0.000     0.000    2.28     0.00    0.00      0   -9.90   -9.00        3.4       11.7       11.7       11.7       11.7       11.7       11.7       11.7       11.7       11.7       11.7       11.7        0.0        0.0        0.0        0.0        0.0        0.0        0.0        0.0        0.0        0.0        0.0        0.0      0.0       0.4      20.5      27.0      33.5    424.57
