AquaCrop 7.1 (August 2023) - Output created on (date) : 16-01-2026   at (time) : 12:17:22

    RunNr     Day1   Month1    Year1     Rain      ETo       GD     CO2      Irri   Infilt   Runoff    Drain   Upflow        E     E/Ex       Tr      TrW   Tr/Trx    SaltIn   SaltOut    SaltUp  SaltProf     Cycle   SaltStr  FertStr  WeedStr  TempStr   ExpStr   StoStr  BioMass  Brelative   HI    Y(dry)  Y(fresh)    WPet      Bin     Bout     DayN   MonthN    YearN
                                           mm       mm  degC.day    ppm        mm       mm       mm       mm       mm       mm        %       mm       mm        %    ton/ha    ton/ha    ton/ha    ton/ha      days       %        %        %        %        %        %    ton/ha        %       %    ton/ha   ton/ha    kg/m3   ton/ha   ton/ha
   Tot(1)        1        7     2011   1152.2   2466.8   3121.8   391.85    543.4   1145.8      6.4     24.3      0.0    884.9       50    828.0    828.0      100     0.000     0.000     0.000     0.000       89        0       30        0        0        1        0    19.713       99     48.2    9.497   10.552     0.80    0.000    0.000       31       12     2011  cluster_267.PRM
   Tot(2)        1        7     2012   1123.6   2437.6   3126.5   394.06    577.9   1120.3      3.4      0.7      0.0    922.2       53    828.1    828.1      100     0.000     0.000     0.000     0.000       89        0       30        0        0        1        0    19.708       99     48.2    9.495   10.550     0.81    0.000    0.000       31       12     2012  cluster_267.PRM
   Tot(3)        1        7     2013   1121.5   2438.8   3126.7   396.74    519.0   1117.5      4.0      0.0      0.0    872.7       50    823.5    823.5      100     0.000     0.000     0.000     0.000       89        0       30        0        0        1        0    19.953      100     48.2    9.612   10.680     0.82    0.000    0.000       31       12     2013  cluster_267.PRM
   Tot(4)        1        7     2014   1123.7   2462.8   3129.3   398.81    546.8   1121.4      2.3      0.0      0.0    891.5       51    830.8    830.8      100     0.000     0.000     0.000     0.000       89        0       30        0        0        1        0    19.780       99     48.2    9.529   10.588     0.80    0.000    0.000       31       12     2014  cluster_267.PRM
   Tot(5)        1        7     2015   1126.5   2432.3   3124.3   401.01    598.7   1123.9      2.6      0.0      0.0    953.8       55    814.8    814.8      100     0.000     0.000     0.000     0.000       89        0       30        0        0        1        0    19.779       99     48.2    9.529   10.587     0.82    0.000    0.000       31       12     2015  cluster_267.PRM
