AquaCrop 7.1 (August 2023) - Output created on (date) : 16-01-2026   at (time) : 12:17:22

   Run:   1
   Day Month  Year   DAP Stage   WC(2.30)   Rain     Irri   Surf   Infilt   RO    Drain       CR    Zgwt       Ex       E     E/Ex     Trx       Tr  Tr/Trx    ETx      ET  ET/ETx      GD       Z     StExp  StSto  StSen StSalt StWeed   CC      CCw     StTr  Kc(Tr)     Trx       Tr      TrW  Tr/Trx   WP    Biomass     HI    Y(dry)  Y(fresh)  Brelative    WPet      Bin     Bout  WC(2.30) Wr(2.30)     Z       Wr    Wr(SAT)    Wr(FC)   Wr(exp)   Wr(sto)   Wr(sen)   Wr(PWP)    SaltIn    SaltOut   SaltUp   Salt(2.30)  SaltZ     Z       ECe    ECsw   StSalt  Zgwt    ECgw       WC01       WC 2       WC 3       WC 4       WC 5       WC 6       WC 7       WC 8       WC 9       WC10       WC11       WC12      ECe01      ECe 2      ECe 3      ECe 4      ECe 5      ECe 6      ECe 7      ECe 8      ECe 9      ECe10      ECe11      ECe12     Rain       ETo      Tmin      Tavg      Tmax      CO2
                                      mm      mm       mm     mm     mm     mm       mm       mm      m        mm       mm     %        mm       mm    %        mm      mm       %  degC-day     m       %      %      %      %      %      %       %       %       -        mm       mm       mm    %     g/m2    ton/ha      %    ton/ha   ton/ha       %       kg/m3   ton/ha   ton/ha      mm       mm       m       mm        mm        mm        mm        mm        mm         mm    ton/ha    ton/ha    ton/ha    ton/ha    ton/ha     m      dS/m    dS/m      %     m      dS/m       0.05       0.18       0.33       0.48       0.63       0.80       1.00       1.20       1.43       1.68       1.93       2.18       0.05       0.18       0.33       0.48       0.63       0.80       1.00       1.20       1.43       1.68       1.93       2.18       mm        mm     degC      degC      degC       ppm
     1     7  2011     1     1     262.4     1.3      0.0    0.0    1.3    0.0      0.0      0.0   -9.90     16.2      7.5     46      0.0      0.0   100     16.2     7.5      46     17.2    0.30     -9     -9     -9      0     -9     0.0     0.0      0    -9.00      0.0      0.0      0.0   100     0.0     0.000    -9.9    0.000    0.000      -9        0.00    0.000    0.000     262.4    262.4    0.30    28.4     125.1      34.6      30.7      21.7      15.5       6.9    0.000     0.000     0.000     0.000     0.000    0.30     0.00    0.00      0   -9.90   -9.00        5.4       11.7       11.7       11.7       11.7       11.7       11.7       11.7       11.7       11.7       11.7       11.7        0.0        0.0        0.0        0.0        0.0        0.0        0.0        0.0        0.0        0.0        0.0        0.0      1.3      14.7      20.4      27.4      34.4    391.85
     2     7  2011     2     1     259.6     4.8      0.0    0.0    4.8    0.0      0.0      0.0   -9.90     15.8      7.6     48      0.0      0.0   100     15.8     7.6      48     16.6    0.30     -9     -9     -9      0     -9     0.0     0.0      0    -9.00      0.0      0.0      0.0   100     0.0     0.000    -9.9    0.000    0.000      -9        0.00    0.000    0.000     259.6    259.6    0.30    25.6     125.1      34.6      30.7      21.5      15.5       6.9    0.000     0.000     0.000     0.000     0.000    0.30     0.00    0.00      0   -9.90   -9.00        2.6       11.7       11.7       11.7       11.7       11.7       11.7       11.7       11.7       11.7       11.7       11.7        0.0        0.0        0.0        0.0        0.0        0.0        0.0        0.0        0.0        0.0        0.0        0.0      4.8      14.3      19.2      26.3      33.3    391.85
     3     7  2011     3     1     258.2     3.8      0.0    0.0    3.8    0.0      0.0      0.0   -9.90     14.8      5.2     35      0.0      0.0   100     14.8     5.2      35     16.6    0.30     -9     -9     -9      0     -9     0.0     0.0      0    -9.00      0.0      0.0      0.0   100     0.0     0.000    -9.9    0.000    0.000      -9        0.00    0.000    0.000     258.2    258.2    0.30    24.2     125.1      34.6      30.7      20.9      15.5       6.9    0.000     0.000     0.000     0.000     0.000    0.30     0.00    0.00      0   -9.90   -9.00        1.2       11.7       11.7       11.7       11.7       11.7       11.7       11.7       11.7       11.7       11.7       11.7        0.0        0.0        0.0        0.0        0.0        0.0        0.0        0.0        0.0        0.0        0.0        0.0      3.8      13.5      19.3      25.6      32.0    391.85
     4     7  2011     4     1     263.8    15.1      0.0    0.0   15.1    0.0      0.0      0.0   -9.90     16.2      9.6     59      0.0      0.0   100     16.2     9.6      59     17.0    0.30     -9     -9     -9      0     -9     0.0     0.0      0    -9.00      0.0      0.0      0.0   100     0.0     0.000    -9.9    0.000    0.000      -9        0.00    0.000    0.000     263.8    263.8    0.30    29.8     125.1      34.6      30.7      21.7      15.5       6.9    0.000     0.000     0.000     0.000     0.000    0.30     0.00    0.00      0   -9.90   -9.00        6.8       11.7       11.7       11.7       11.7       11.7       11.7       11.7       11.7       11.7       11.7       11.7        0.0        0.0        0.0        0.0        0.0        0.0        0.0        0.0        0.0        0.0        0.0        0.0     15.1      14.7      20.1      27.1      34.2    391.85
     5     7  2011     5     1     259.3     1.8      0.0    0.0    1.8    0.0      0.0      0.0   -9.90     16.4      6.3     39      0.0      0.0   100     16.4     6.3      39     17.1    0.32     -9     -9     -9      0     -9     0.0     0.0      0    -9.00      0.0      0.0      0.0   100     0.0     0.000    -9.9    0.000    0.000      -9        0.00    0.000    0.000     259.3    259.3    0.32    27.6     133.5      36.9      32.8      23.3      16.5       7.4    0.000     0.000     0.000     0.000     0.000    0.32     0.00    0.00      0   -9.90   -9.00        2.2       11.7       11.7       11.7       11.7       11.7       11.7       11.7       11.7       11.7       11.7       11.7        0.0        0.0        0.0        0.0        0.0        0.0        0.0        0.0        0.0        0.0        0.0        0.0      1.8      14.9      20.3      27.5      34.6    391.85
     6     7  2011     6     1     293.5    47.5      0.0    0.0   46.4    1.2      0.0      0.0   -9.90     16.0     12.2     76      0.0      0.0   100     16.0    12.2      76     17.2    0.36     -9     -9     -9      0     -9     0.0     0.0      0    -9.00      0.0      0.0      0.0   100     0.0     0.000    -9.9    0.000    0.000      -9        0.00    0.000    0.000     293.5    293.5    0.36    66.5     150.6      41.6      37.0      26.0      18.7       8.4    0.000     0.000     0.000     0.000     0.000    0.36     0.00    0.00      0   -9.90   -9.00       29.9       16.4       11.7       11.7       11.7       11.7       11.7       11.7       11.7       11.7       11.7       11.7        0.0        0.0        0.0        0.0        0.0        0.0        0.0        0.0        0.0        0.0        0.0        0.0     47.5      14.5      20.4      27.3      34.2    391.85
     7     7  2011     7     2     276.7     2.1      0.0    0.0    2.1    0.0     10.6      0.0   -9.90     15.7      8.1     52      0.1      0.1   100     15.8     8.2      52     16.4    0.40     -9      0      0      0      0     0.4     0.4      0     0.01      0.1      0.1      0.1   100    34.3     0.003    -9.9    0.000    0.000     100        0.00    0.000    0.000     276.7    276.7    0.40    45.1     166.4      46.0      46.0      28.6      28.6       9.3    0.000     0.000     0.000     0.000     0.000    0.40     0.00    0.00      0   -9.90   -9.00        5.8       12.9       13.9       13.0       12.6       12.4       12.2       12.2       12.0       12.0       11.9       11.9        0.0        0.0        0.0        0.0        0.0        0.0        0.0        0.0        0.0        0.0        0.0        0.0      2.1      14.4      18.9      26.0      33.1    391.85
     8     7  2011     8     2     264.6     5.0      0.0    0.0    5.0    0.0      9.0      0.0   -9.90     15.5      8.1     52      0.1      0.1   100     15.6     8.2      53     17.6    0.43     -9      0      0      0      0     0.5     0.5      0     0.01      0.1      0.1      0.1   100    34.3     0.006    -9.9    0.000    0.000     100        0.00    0.000    0.000     264.6    264.6    0.43    42.2     181.2      50.1      50.1      31.1      31.1      10.2    0.000     0.000     0.000     0.000     0.000    0.43     0.00    0.00      0   -9.90   -9.00        2.6       11.9       12.2       12.0       12.0       12.0       11.9       11.9       11.9       11.9       11.8       11.8        0.0        0.0        0.0        0.0        0.0        0.0        0.0        0.0        0.0        0.0        0.0        0.0      5.0      14.2      21.2      27.6      34.1    391.85
     9     7  2011     9     2     259.9     3.4      0.7    0.0    3.4    0.0      3.6      0.0   -9.90     16.5      5.0     30      0.2      0.2   100     16.7     5.2      31     16.5    0.47      6      0      0      0      0     0.6     0.6      0     0.01      0.2      0.2      0.2   100    34.3     0.010    -9.9    0.000    0.000     100        0.00    0.000    0.000     259.9    259.9    0.47    45.0     195.4      54.0      54.0      34.5      34.5      11.0    0.000     0.000     0.000     0.000     0.000    0.47     0.00    0.00      0   -9.90   -9.00        9.6        9.6        9.6       10.8       11.8       11.8       11.8       11.8       11.8       11.8       11.8       11.8        0.0        0.0        0.0        0.0        0.0        0.0        0.0        0.0        0.0        0.0        0.0        0.0      3.4      15.2      19.1      26.7      34.4    391.85
    10     7  2011    10     2     259.2    10.0      0.0    0.0   10.0    0.0      0.8      0.0   -9.90     15.3      9.7     63      0.2      0.2   100     15.5     9.9      64     17.3    0.50      0      0      0      0      0     0.7     0.7      0     0.01      0.2      0.2      0.2   100    34.3     0.014    -9.9    0.000    0.000      99        0.00    0.000    0.000     259.2    259.2    0.50    48.6     209.1      57.8      57.8      35.8      35.8      11.9    0.000     0.000     0.000     0.000     0.000    0.50     0.00    0.00      0   -9.90   -9.00        9.6        9.6        9.6       10.8       11.7       11.7       11.7       11.7       11.7       11.7       11.7       11.7        0.0        0.0        0.0        0.0        0.0        0.0        0.0        0.0        0.0        0.0        0.0        0.0     10.0      14.1      20.6      27.1      33.7    391.85
    11     7  2011    11     2     257.5     3.2      3.8    0.0    3.2    0.0      0.2      0.0   -9.90     16.6      8.4     51      0.2      0.2   100     16.8     8.6      51     16.8    0.53      0      0      0      0      0     0.8     0.8      0     0.01      0.2      0.2      0.2   100    34.3     0.019    -9.9    0.000    0.000      99        0.00    0.000    0.000     257.5    257.5    0.53    50.6     222.3      61.4      61.4      39.4      39.4      12.6    0.000     0.000     0.000     0.000     0.000    0.53     0.00    0.00      0   -9.90   -9.00        9.6        9.6        9.6        9.8       11.7       11.7       11.7       11.7       11.7       11.7       11.7       11.7        0.0        0.0        0.0        0.0        0.0        0.0        0.0        0.0        0.0        0.0        0.0        0.0      3.2      15.3      19.5      27.2      34.9    391.85
    12     7  2011    12     2     257.1     3.1      5.2    0.0    3.1    0.0      0.0      0.0   -9.90     16.9      8.3     49      0.3      0.3   100     17.2     8.6      50     17.1    0.56      0      0      0      0      0     1.0     1.0      0     0.02      0.3      0.3      0.3   100    34.3     0.025    -9.9    0.000    0.000      99        0.00    0.000    0.000     257.1    257.1    0.56    53.7     235.2      65.0      65.0      42.0      42.0      13.4    0.000     0.000     0.000     0.000     0.000    0.56     0.00    0.00      0   -9.90   -9.00        9.6        9.6        9.7        9.7       11.6       11.7       11.7       11.7       11.7       11.7       11.7       11.7        0.0        0.0        0.0        0.0        0.0        0.0        0.0        0.0        0.0        0.0        0.0        0.0      3.1      15.6      20.2      27.9      35.6    391.85
    13     7  2011    13     2     256.0     2.0      4.5    0.0    2.0    0.0      0.0      0.0   -9.90     16.2      7.3     45      0.3      0.3   100     16.5     7.6      46     16.3    0.59      0      0      0      0      0     1.2     1.2      0     0.02      0.3      0.3      0.3   100    34.3     0.032    -9.9    0.000    0.000      99        0.00    0.000    0.000     256.0    256.0    0.59    56.5     247.7      68.4      68.4      43.5      43.5      14.1    0.000     0.000     0.000     0.000     0.000    0.59     0.00    0.00      0   -9.90   -9.00        9.5        9.5        9.6        9.6       11.1       11.7       11.7       11.7       11.7       11.7       11.7       11.7        0.0        0.0        0.0        0.0        0.0        0.0        0.0        0.0        0.0        0.0        0.0        0.0      2.0      15.0      18.5      26.2      33.9    391.85
    14     7  2011    14     2     254.7     4.8      3.3    0.0    4.8    0.0      0.0      0.0   -9.90     15.6      9.1     58      0.4      0.4   100     15.9     9.4      59     17.1    0.62      0      0      0      0      0     1.4     1.4      0     0.02      0.4      0.4      0.4   100    34.3     0.040    -9.9    0.000    0.000      99        0.00    0.000    0.000     254.7    254.7    0.62    59.0     259.9      71.8      71.8      45.0      45.0      14.8    0.000     0.000     0.000     0.000     0.000    0.62     0.00    0.00      0   -9.90   -9.00        9.5        9.5        9.5        9.5       10.4       11.7       11.7       11.7       11.7       11.7       11.7       11.7        0.0        0.0        0.0        0.0        0.0        0.0        0.0        0.0        0.0        0.0        0.0        0.0      4.8      14.5      20.3      27.2      34.0    391.85
    15     7  2011    15     2     259.7    15.8      0.0    0.0   15.5    0.3      0.0      0.0   -9.90     14.7     10.2     69      0.4      0.4   100     15.0    10.5      70     16.9    0.65      0      0      0      0      0     1.6     1.6      0     0.03      0.4      0.4      0.4   100    34.3     0.050    -9.9    0.000    0.000      99        0.00    0.000    0.000     259.7    259.7    0.65    66.9     271.9      75.1      75.1      46.0      46.0      15.6    0.000     0.000     0.000     0.000     0.000    0.65     0.00    0.00      0   -9.90   -9.00       14.6        9.5        9.5        9.5       10.4       11.7       11.7       11.7       11.7       11.7       11.7       11.7        0.0        0.0        0.0        0.0        0.0        0.0        0.0        0.0        0.0        0.0        0.0        0.0     15.8      13.7      19.8      26.2      32.6    391.85
    16     7  2011    16     2     257.7     8.7      0.0    0.0    8.6    0.1      0.0      0.0   -9.90     15.7     10.0     64      0.5      0.5   100     16.2    10.5      65     16.4    0.67      0      0      0      0      0     1.9     1.9      0     0.03      0.5      0.5      0.5   100    34.3     0.062    -9.9    0.000    0.000      99        0.00    0.000    0.000     257.7    257.7    0.67    67.8     283.6      78.3      78.3      49.5      49.5      16.2    0.000     0.000     0.000     0.000     0.000    0.67     0.00    0.00      0   -9.90   -9.00       10.1       11.2        9.5        9.5       10.4       11.7       11.7       11.7       11.7       11.7       11.7       11.7        0.0        0.0        0.0        0.0        0.0        0.0        0.0        0.0        0.0        0.0        0.0        0.0      8.7      14.8      18.9      26.3      33.7    391.85
    17     7  2011    17     2     259.6    13.4      0.0    0.0   13.1    0.2      0.0      0.0   -9.90     16.6     10.7     65      0.6      0.6   100     17.2    11.3      66     16.1    0.70      0      0      0      0      0     2.2     2.2      0     0.04      0.6      0.6      0.6   100    34.3     0.076    -9.9    0.000    0.000      99        0.00    0.000    0.000     259.6    259.6    0.70    72.5     295.2      81.5      81.5      52.9      52.9      16.9    0.000     0.000     0.000     0.000     0.000    0.70     0.00    0.00      0   -9.90   -9.00       12.0       11.2        9.5        9.5       10.4       11.7       11.7       11.7       11.7       11.7       11.7       11.7        0.0        0.0        0.0        0.0        0.0        0.0        0.0        0.0        0.0        0.0        0.0        0.0     13.4      15.7      18.2      26.4      34.7    391.85
    18     7  2011    18     2     255.3     5.6      0.0    0.0    5.6    0.0      0.0      0.0   -9.90     14.2      9.2     65      0.6      0.6   100     14.8     9.9      67     17.3    0.73      0      0      0      0      0     2.7     2.7      0     0.05      0.6      0.6      0.6   100    34.3     0.092    -9.9    0.000    0.000      99        0.00    0.000    0.000     255.3    255.3    0.73    71.3     306.5      84.6      84.6      51.6      51.6      17.6    0.000     0.000     0.000     0.000     0.000    0.73     0.00    0.00      0   -9.90   -9.00        7.4       11.3        9.5        9.5       10.4       11.7       11.7       11.7       11.7       11.7       11.7       11.7        0.0        0.0        0.0        0.0        0.0        0.0        0.0        0.0        0.0        0.0        0.0        0.0      5.6      13.5      20.6      26.7      32.8    391.85
    19     7  2011    19     2     252.3     1.7      2.5    0.0    1.7    0.0      0.0      0.0   -9.90     15.2      6.3     42      0.8      0.8   100     16.0     7.1      44     17.6    0.75      9      0      0      0      0     3.1     3.1      0     0.05      0.8      0.8      0.8   100    34.3     0.110    -9.9    0.000    0.000      99        0.00    0.000    0.000     252.3    252.3    0.75    72.3     317.7      87.7      87.7      55.2      55.2      18.3    0.000     0.000     0.000     0.000     0.000    0.75     0.00    0.00      0   -9.90   -9.00        9.5        9.5        9.5        9.5        9.5       11.1       11.7       11.7       11.7       11.7       11.7       11.7        0.0        0.0        0.0        0.0        0.0        0.0        0.0        0.0        0.0        0.0        0.0        0.0      1.7      14.6      21.3      28.0      34.7    391.85
    20     7  2011    20     2     251.0     6.3      2.5    0.0    6.3    0.0      0.0      0.0   -9.90     15.0      9.2     61      0.9      0.9   100     16.0    10.1      63     17.2    0.78      0      0      0      0      0     3.6     3.6      0     0.06      0.9      0.9      0.9   100    34.3     0.132    -9.9    0.000    0.000      99        0.00    0.000    0.000     251.0    251.0    0.78    74.7     328.7      90.8      90.8      57.1      57.1      18.9    0.000     0.000     0.000     0.000     0.000    0.78     0.00    0.00      0   -9.90   -9.00        9.5        9.5        9.5        9.5        9.5       10.5       11.7       11.7       11.7       11.7       11.7       11.7        0.0        0.0        0.0        0.0        0.0        0.0        0.0        0.0        0.0        0.0        0.0        0.0      6.3      14.6      20.3      27.2      34.1    391.85
    21     7  2011    21     2     251.2     9.6      1.7    0.0    9.6    0.0      0.0      0.0   -9.90     16.2      9.9     61      1.2      1.2   100     17.4    11.1      64     16.4    0.81      0      0      0      0      0     4.3     4.3      0     0.08      1.2      1.2      1.2   100    34.3     0.158    -9.9    0.000    0.000      98        0.00    0.000    0.000     251.2    251.2    0.81    77.9     339.6      93.8      93.8      61.3      61.3      19.5    0.000     0.000     0.000     0.000     0.000    0.81     0.00    0.00      0   -9.90   -9.00        9.6        9.6        9.7        9.7        9.7       10.1       11.7       11.7       11.7       11.7       11.7       11.7        0.0        0.0        0.0        0.0        0.0        0.0        0.0        0.0        0.0        0.0        0.0        0.0      9.6      15.9      18.7      27.0      35.3    391.85
    22     7  2011    22     2     250.7    10.2      0.5    0.0   10.2    0.0      0.0      0.0   -9.90     16.0      9.9     62      1.4      1.4   100     17.4    11.3      65     17.2    0.83      0      0      0      0      0     5.1     5.1      0     0.09      1.4      1.4      1.4   100    34.3     0.188    -9.9    0.000    0.000      98        0.00    0.000    0.000     250.7    250.7    0.83    80.1     350.3      96.7      96.7      63.2      63.2      20.2    0.000     0.000     0.000     0.000     0.000    0.83     0.00    0.00      0   -9.90   -9.00        9.6        9.6        9.7        9.7        9.7        9.8       11.7       11.7       11.7       11.7       11.7       11.7        0.0        0.0        0.0        0.0        0.0        0.0        0.0        0.0        0.0        0.0        0.0        0.0     10.2      15.9      20.3      28.2      36.0    391.85
    23     7  2011    23     2     249.2     5.7      3.3    0.0    5.7    0.0      0.0      0.0   -9.90     14.3      9.0     63      1.5      1.5   100     15.8    10.5      66     17.3    0.86      0      0      0      0      0     6.0     6.0      0     0.10      1.5      1.5      1.5   100    34.3     0.224    -9.9    0.000    0.000      98        0.00    0.000    0.000     249.2    249.2    0.86    81.2     360.9      99.7      99.7      62.5      62.5      20.8    0.000     0.000     0.000     0.000     0.000    0.86     0.00    0.00      0   -9.90   -9.00        9.5        9.5        9.5        9.5        9.5        9.6       11.7       11.7       11.7       11.7       11.7       11.7        0.0        0.0        0.0        0.0        0.0        0.0        0.0        0.0        0.0        0.0        0.0        0.0      5.7      14.5      20.7      27.4      34.2    391.85
    24     7  2011    24     2     250.5     4.0      7.8    0.0    4.0    0.0      0.0      0.0   -9.90     15.5      8.7     56      1.9      1.9   100     17.4    10.6      61     16.1    0.88      0      0      0      0      0     7.0     7.0      0     0.12      1.9      1.9      1.9   100    34.3     0.265    -9.9    0.000    0.000      98        0.00    0.000    0.000     250.5    250.5    0.88    84.8     371.4     102.5     102.5      67.1      67.1      21.4    0.000     0.000     0.000     0.000     0.000    0.88     0.00    0.00      0   -9.90   -9.00        9.6        9.6        9.7        9.7        9.7        9.7       11.7       11.7       11.7       11.7       11.7       11.7        0.0        0.0        0.0        0.0        0.0        0.0        0.0        0.0        0.0        0.0        0.0        0.0      4.0      15.9      18.3      26.7      35.2    391.85
    25     7  2011    25     2     248.8     1.8      5.2    0.0    1.8    0.0      0.0      0.0   -9.90     13.6      6.7     49      2.0      2.0   100     15.6     8.7      56     16.8    0.91      1      0      0      0      0     8.3     8.3      0     0.14      2.0      2.0      2.0   100    34.3     0.314    -9.9    0.000    0.000      98        0.00    0.000    0.000     248.8    248.8    0.91    85.7     381.7     105.4     105.4      65.7      65.7      22.0    0.000     0.000     0.000     0.000     0.000    0.91     0.00    0.00      0   -9.90   -9.00        9.5        9.5        9.5        9.5        9.5        9.5       11.6       11.7       11.7       11.7       11.7       11.7        0.0        0.0        0.0        0.0        0.0        0.0        0.0        0.0        0.0        0.0        0.0        0.0      1.8      14.3      19.6      26.4      33.3    391.85
    26     7  2011    26     2     248.4     3.1      6.7    0.0    3.1    0.0      0.0      0.0   -9.90     13.4      7.8     58      2.4      2.4   100     15.8    10.2      64     17.2    0.93      0      0      0      0      0     9.8     9.8      0     0.17      2.4      2.4      2.4   100    34.3     0.370    -9.9    0.000    0.000      98        0.00    0.000    0.000     248.4    248.4    0.93    88.7     392.0     108.2     108.2      68.0      68.0      22.6    0.000     0.000     0.000     0.000     0.000    0.93     0.00    0.00      0   -9.90   -9.00        9.5        9.5        9.5        9.5        9.5        9.5       11.3       11.7       11.7       11.7       11.7       11.7        0.0        0.0        0.0        0.0        0.0        0.0        0.0        0.0        0.0        0.0        0.0        0.0      3.1      14.5      20.5      27.3      34.1    391.85
    27     7  2011    27     2     247.0     3.1      5.6    0.0    3.1    0.0      0.0      0.0   -9.90     12.7      7.3     58      2.7      2.7   100     15.4    10.1      65     17.5    0.95      0      0      0      0      0    11.5    11.5      0     0.19      2.7      2.7      2.7   100    34.3     0.437    -9.9    0.000    0.000      98        0.00    0.000    0.000     247.0    247.0    0.95    90.8     402.2     111.0     111.0      69.0      69.0      23.2    0.000     0.000     0.000     0.000     0.000    0.95     0.00    0.00      0   -9.90   -9.00        9.5        9.5        9.5        9.5        9.5        9.5       10.8       11.7       11.7       11.7       11.7       11.7        0.0        0.0        0.0        0.0        0.0        0.0        0.0        0.0        0.0        0.0        0.0        0.0      3.1      14.1      21.0      27.4      33.9    391.85
    28     7  2011    28     2     248.3     2.5      9.9    0.0    2.5    0.0      0.0      0.0   -9.90     14.1      7.4     53      3.7      3.7   100     17.8    11.1      62     16.7    0.98      0      0      0      0      0    13.6    13.6      0     0.23      3.7      3.7      3.7   100    34.3     0.514    -9.9    0.000    0.000      98        0.00    0.000    0.000     248.3    248.3    0.98    95.1     412.2     113.8     113.8      75.3      75.3      23.8    0.000     0.000     0.000     0.000     0.000    0.98     0.00    0.00      0   -9.90   -9.00        9.7        9.7        9.7        9.7        9.7        9.7       10.4       11.7       11.7       11.7       11.7       11.7        0.0        0.0        0.0        0.0        0.0        0.0        0.0        0.0        0.0        0.0        0.0        0.0      2.5      16.3      19.4      27.8      36.2    391.85
    29     7  2011    29     2     254.2    20.9      0.0    0.0   20.0    0.8      0.0      0.0   -9.90     13.2      9.9     75      4.2      4.2   100     17.4    14.1      81     17.1    1.00      0      0      0      0      0    16.0    16.0      0     0.26      4.2      4.2      4.2   100    34.3     0.604    -9.9    0.000    0.000      98        0.00    0.000    0.000     254.2    254.2    1.00   103.5     422.2     116.6     116.6      76.6      76.6      24.4    0.000     0.000     0.000     0.000     0.000    1.00     0.00    0.00      0   -9.90   -9.00       17.1        8.7        9.7        9.7        9.7        9.7       10.4       11.7       11.7       11.7       11.7       11.7        0.0        0.0        0.0        0.0        0.0        0.0        0.0        0.0        0.0        0.0        0.0        0.0     20.9      16.1      20.2      28.2      36.2    391.85
    30     7  2011    30     2     247.3     5.5      0.0    0.0    5.5    0.0      0.0      0.0   -9.90     11.0      8.1     74      4.3      4.3   100     15.3    12.4      81     17.6    1.02      0      0      0      0      0    18.9    18.9      0     0.30      4.3      4.3      4.3   100    34.3     0.708    -9.9    0.000    0.000      98        0.00    0.000    0.000     247.3    247.3    1.02    99.0     432.0     119.3     119.3      74.1      74.1      25.0    0.000     0.000     0.000     0.000     0.000    1.02     0.00    0.00      0   -9.90   -9.00        6.9       10.7        9.9        9.7        9.7        9.7       10.4       11.7       11.7       11.7       11.7       11.7        0.0        0.0        0.0        0.0        0.0        0.0        0.0        0.0        0.0        0.0        0.0        0.0      5.5      14.1      21.2      27.5      33.9    391.85
    31     7  2011    31     2     244.6     1.1      5.3    0.0    1.1    0.0      0.0      0.0   -9.90     10.3      4.4     42      4.8      4.8   100     15.1     9.2      61     17.0    1.05     12      0      0      0      0    21.8    21.8      0     0.35      4.8      4.8      4.8   100    34.3     0.827    -9.9    0.000    0.000      97        0.00    0.000    0.000     244.6    244.6    1.05    99.1     441.8     122.0     122.0      75.4      75.4      25.6    0.000     0.000     0.000     0.000     0.000    1.05     0.00    0.00      0   -9.90   -9.00        9.4        9.4        9.5        9.5        9.5        9.5        9.7       11.7       11.7       11.7       11.7       11.7        0.0        0.0        0.0        0.0        0.0        0.0        0.0        0.0        0.0        0.0        0.0        0.0      1.1      13.9      19.9      26.4      33.0    391.85
     1     8  2011    32     2     245.5     7.7      6.9    0.0    7.7    0.0      0.0      0.0   -9.90     10.2      7.7     75      6.0      6.0   100     16.2    13.7      84     16.7    1.07      0      0      0      0      0    25.8    25.8      0     0.40      6.0      6.0      6.0   100    34.3     0.963    -9.9    0.000    0.000      97        0.00    0.000    0.000     245.5    245.5    1.07   102.2     451.5     124.7     124.7      79.6      79.6      26.1    0.000     0.000     0.000     0.000     0.000    1.07     0.00    0.00      0   -9.90   -9.00        9.6        9.6        9.6        9.6        9.6        9.6        9.6       11.7       11.7       11.7       11.7       11.7        0.0        0.0        0.0        0.0        0.0        0.0        0.0        0.0        0.0        0.0        0.0        0.0      7.7      15.1      19.3      26.8      34.3    391.85
     2     8  2011    33     2     245.0     2.8      9.6    0.0    2.8    0.0      0.0      0.0   -9.90      9.1      6.1     68      6.7      6.7   100     15.8    12.9      81     17.3    1.09      0      0      0      0      0    30.4    30.4      0     0.46      6.7      6.7      6.7   100    34.3     1.120    -9.9    0.000    0.000      97        0.00    0.000    0.000     245.0    245.0    1.09   103.9     461.2     127.3     127.3      80.4      80.4      26.7    0.000     0.000     0.000     0.000     0.000    1.09     0.00    0.00      0   -9.90   -9.00        9.5        9.5        9.6        9.6        9.6        9.6        9.6       11.7       11.7       11.7       11.7       11.7        0.0        0.0        0.0        0.0        0.0        0.0        0.0        0.0        0.0        0.0        0.0        0.0      2.8      14.7      20.7      27.5      34.4    391.85
     3     8  2011    34     2     244.3    11.4      2.5    0.0   11.3    0.0      0.0      0.0   -9.90      7.9      7.0     88      7.5      7.5   100     15.4    14.5      94     16.6    1.12      0      0      0      0      0    35.8    35.8      0     0.52      7.5      7.5      7.5   100    34.3     1.300    -9.9    0.000    0.000      97        0.00    0.000    0.000     244.3    244.3    1.12   106.0     470.7     130.0     130.0      81.5      81.5      27.3    0.000     0.000     0.000     0.000     0.000    1.12     0.00    0.00      0   -9.90   -9.00        9.5        9.5        9.5        9.5        9.5        9.5        9.5       11.5       11.7       11.7       11.7       11.7        0.0        0.0        0.0        0.0        0.0        0.0        0.0        0.0        0.0        0.0        0.0        0.0     11.4      14.4      19.3      26.3      33.3    391.85
     4     8  2011    35     2     245.2     3.8     12.8    0.0    3.8    0.0      0.0      0.0   -9.90      7.4      6.3     85      9.4      9.4   100     16.8    15.7      93     16.7    1.14      0      0      0      0      0    42.3    42.3      0     0.60      9.4      9.4      9.4   100    34.3     1.504    -9.9    0.000    0.000      97        0.00    0.000    0.000     245.2    245.2    1.14   110.0     480.2     132.6     132.6      86.3      86.3      27.8    0.000     0.000     0.000     0.000     0.000    1.14     0.00    0.00      0   -9.90   -9.00        9.6        9.6        9.7        9.7        9.7        9.7        9.7       11.2       11.7       11.7       11.7       11.7        0.0        0.0        0.0        0.0        0.0        0.0        0.0        0.0        0.0        0.0        0.0        0.0      3.8      15.7      19.5      27.4      35.4    391.85
     5     8  2011    36     2     243.8    12.3      2.3    0.0   12.2    0.1      0.0      0.0   -9.90      6.0      5.6     94     10.3     10.3   100     16.3    16.0      98     16.5    1.16      0      0      0      0      0    49.7    49.7      0     0.67     10.3     10.3     10.3   100    34.3     1.735    -9.9    0.000    0.000      97        0.00    0.000    0.000     243.8    243.8    1.16   111.7     489.6     135.2     135.2      87.0      87.0      28.4    0.000     0.000     0.000     0.000     0.000    1.16     0.00    0.00      0   -9.90   -9.00        9.6        9.6        9.6        9.6        9.6        9.6        9.6       10.7       11.7       11.7       11.7       11.7        0.0        0.0        0.0        0.0        0.0        0.0        0.0        0.0        0.0        0.0        0.0        0.0     12.3      15.3      19.1      26.8      34.6    391.85
     6     8  2011    37     2     241.6     6.4      6.5    0.0    6.4    0.0      0.0      0.0   -9.90      4.6      4.5     99     10.6     10.6   100     15.2    15.1     100     17.0    1.18      0      0      0      0      0    56.7    56.7      0     0.74     10.6     10.6     10.6   100    34.3     1.988    -9.9    0.000    0.000      97        0.00    0.000    0.000     241.6    241.6    1.18   112.5     499.0     137.8     137.8      86.1      86.1      28.9    0.000     0.000     0.000     0.000     0.000    1.18     0.00    0.00      0   -9.90   -9.00        9.5        9.5        9.5        9.5        9.5        9.5        9.5       10.2       11.7       11.7       11.7       11.7        0.0        0.0        0.0        0.0        0.0        0.0        0.0        0.0        0.0        0.0        0.0        0.0      6.4      14.3      20.0      26.8      33.6    391.85
     7     8  2011    38     2     242.5     1.6     15.2    0.0    1.6    0.0      0.0      0.0   -9.90      4.2      3.6     85     12.3     12.3   100     16.5    15.9      96     16.6    1.20      3      0      0      0      0    62.4    62.4      0     0.79     12.3     12.3     12.3   100    34.3     2.259    -9.9    0.000    0.000      97        0.00    0.000    0.000     242.5    242.5    1.20   116.0     508.3     140.3     140.3      91.0      91.0      29.5    0.000     0.000     0.000     0.000     0.000    1.20     0.00    0.00      0   -9.90   -9.00        9.6        9.6        9.7        9.7        9.7        9.7        9.7        9.9       11.7       11.7       11.7       11.7        0.0        0.0        0.0        0.0        0.0        0.0        0.0        0.0        0.0        0.0        0.0        0.0      1.6      15.6      19.1      27.1      35.0    391.85
     8     8  2011    39     2     242.5    11.4      5.2    0.0   11.4    0.1      0.0      0.0   -9.90      3.5      3.5    100     13.2     13.2   100     16.7    16.7     100     17.1    1.23      0      0      0      0      0    67.4    67.4      0     0.83     13.2     13.2     13.2   100    34.3     2.544    -9.9    0.000    0.000      97        0.00    0.000    0.000     242.5    242.5    1.23   118.2     517.5     142.9     142.9      93.3      93.3      30.0    0.000     0.000     0.000     0.000     0.000    1.23     0.00    0.00      0   -9.90   -9.00        9.6        9.6        9.7        9.7        9.7        9.7        9.7        9.8       11.7       11.7       11.7       11.7        0.0        0.0        0.0        0.0        0.0        0.0        0.0        0.0        0.0        0.0        0.0        0.0     11.4      15.8      20.1      28.0      35.9    391.85
     9     8  2011    40     2     240.4    11.4      1.7    0.0   11.4    0.1      0.0      0.0   -9.90      2.7      2.7    100     12.4     12.4   100     15.2    15.2     100     17.8    1.25      0      0      0      0      0    71.6    71.6      0     0.87     12.4     12.4     12.4   100    34.3     2.841    -9.9    0.000    0.000      97        0.00    0.000    0.000     240.4    240.4    1.25   118.4     526.7     145.4     145.4      91.1      91.1      30.6    0.000     0.000     0.000     0.000     0.000    1.25     0.00    0.00      0   -9.90   -9.00        9.5        9.5        9.5        9.5        9.5        9.5        9.5        9.6       11.7       11.7       11.7       11.7        0.0        0.0        0.0        0.0        0.0        0.0        0.0        0.0        0.0        0.0        0.0        0.0     11.4      14.4      21.6      28.1      34.6    391.85
    10     8  2011    41     2     240.2     0.9     13.7    0.0    0.9    0.0      0.0      0.0   -9.90      2.3      2.1     92     12.7     12.7   100     15.0    14.8      99     17.4    1.27      7      0      0      0      0    74.9    74.9      0     0.89     12.7     12.7     12.7   100    34.3     3.146    -9.9    0.000    0.000      98        0.00    0.000    0.000     240.2    240.2    1.27   120.2     535.8     147.9     147.9      92.4      92.4      31.1    0.000     0.000     0.000     0.000     0.000    1.27     0.00    0.00      0   -9.90   -9.00        9.5        9.5        9.5        9.5        9.5        9.5        9.5        9.5       11.7       11.7       11.7       11.7        0.0        0.0        0.0        0.0        0.0        0.0        0.0        0.0        0.0        0.0        0.0        0.0      0.9      14.3      20.7      27.3      33.9    391.85
    11     8  2011    42     2     239.5     2.1     11.7    0.0    2.1    0.0      0.0      0.0   -9.90      1.9      1.9    100     12.6     12.6   100     14.5    14.5     100     17.1    1.29      0      0      0      0      0    78.0    78.0      0     0.91     12.6     12.6     12.6   100    34.3     3.460    -9.9    0.000    0.000      98        0.00    0.000    0.000     239.5    239.5    1.29   121.5     544.9     150.4     150.4      92.6      92.6      31.6    0.000     0.000     0.000     0.000     0.000    1.29     0.00    0.00      0   -9.90   -9.00        9.4        9.4        9.5        9.5        9.5        9.5        9.5        9.5       11.7       11.7       11.7       11.7        0.0        0.0        0.0        0.0        0.0        0.0        0.0        0.0        0.0        0.0        0.0        0.0      2.1      13.8      20.2      26.6      32.9    391.85
    12     8  2011    43     2     242.2     3.2     16.2    0.0    3.2    0.0      0.0      0.0   -9.90      1.9      1.9    100     14.8     14.8   100     16.7    16.7     100     17.2    1.31      0      0      0      0      0    80.6    80.6      0     0.93     14.8     14.8     14.8   100    34.3     3.779    -9.9    0.000    0.000      98        0.00    0.000    0.000     242.2    242.2    1.31   126.7     553.9     152.9     152.9     100.0     100.0      32.2    0.000     0.000     0.000     0.000     0.000    1.31     0.00    0.00      0   -9.90   -9.00        9.6        9.6        9.7        9.7        9.7        9.7        9.7        9.7       11.6       11.7       11.7       11.7        0.0        0.0        0.0        0.0        0.0        0.0        0.0        0.0        0.0        0.0        0.0        0.0      3.2      15.9      20.3      28.2      36.0    391.85
    13     8  2011    44     2     239.5     4.6      7.9    0.0    4.6    0.0      0.0      0.0   -9.90      1.4      1.4    100     13.7     13.7   100     15.2    15.2     100     17.3    1.33      0      0      0      0      0    82.8    82.8      0     0.95     13.7     13.7     13.7   100    34.3     4.105    -9.9    0.000    0.000      98        0.00    0.000    0.000     239.5    239.5    1.33   127.1     562.8     155.4     155.4      97.7      97.7      32.7    0.000     0.000     0.000     0.000     0.000    1.33     0.00    0.00      0   -9.90   -9.00        9.5        9.5        9.5        9.5        9.5        9.5        9.5        9.5       11.3       11.7       11.7       11.7        0.0        0.0        0.0        0.0        0.0        0.0        0.0        0.0        0.0        0.0        0.0        0.0      4.6      14.5      20.6      27.3      34.1    391.85
    14     8  2011    45     2     237.3     1.8     10.2    0.0    1.8    0.0      0.0      0.0   -9.90      1.2      1.2    100     13.1     13.1   100     14.2    14.2     100     18.1    1.35      2      0      0      0      0    84.7    84.7      0     0.96     13.1     13.1     13.1   100    34.3     4.435    -9.9    0.000    0.000      98        0.00    0.000    0.000     237.3    237.3    1.35   128.0     571.7     157.8     157.8      96.6      96.6      33.2    0.000     0.000     0.000     0.000     0.000    1.35     0.00    0.00      0   -9.90   -9.00        9.4        9.4        9.4        9.4        9.4        9.4        9.4        9.4       10.9       11.7       11.7       11.7        0.0        0.0        0.0        0.0        0.0        0.0        0.0        0.0        0.0        0.0        0.0        0.0      1.8      13.6      22.2      28.0      33.8    391.85
    15     8  2011    46     2     239.3     6.7     11.8    0.0    6.7    0.0      0.0      0.0   -9.90      1.2      1.2    100     15.3     15.3   100     16.5    16.5     100     16.7    1.37      0      0      0      0      0    86.3    86.3      0     0.97     15.3     15.3     15.3   100    34.3     4.768    -9.9    0.000    0.000      98        0.00    0.000    0.000     239.3    239.3    1.37   133.0     580.6     160.3     160.3     104.3     104.3      33.8    0.000     0.000     0.000     0.000     0.000    1.37     0.00    0.00      0   -9.90   -9.00        9.6        9.6        9.7        9.7        9.7        9.7        9.7        9.7       10.6       11.7       11.7       11.7        0.0        0.0        0.0        0.0        0.0        0.0        0.0        0.0        0.0        0.0        0.0        0.0      6.7      15.7      19.4      27.4      35.4    391.85
    16     8  2011    47     2     238.2     3.9     11.3    0.0    3.9    0.0      0.0      0.0   -9.90      1.0      1.0    100     15.3     15.3   100     16.3    16.3     100     16.1    1.40      0      0      0      0      0    87.6    87.6      0     0.98     15.3     15.3     15.3   100    34.3     5.105    -9.9    0.000    0.000      98        0.00    0.000    0.000     238.2    238.2    1.40   134.6     589.4     162.7     162.7     105.4     105.4      34.3    0.000     0.000     0.000     0.000     0.000    1.40     0.00    0.00      0   -9.90   -9.00        9.6        9.6        9.6        9.6        9.6        9.6        9.6        9.6       10.2       11.7       11.7       11.7        0.0        0.0        0.0        0.0        0.0        0.0        0.0        0.0        0.0        0.0        0.0        0.0      3.9      15.5      18.2      26.4      34.5    391.85
    17     8  2011    48     2     236.1     5.1      8.2    0.0    5.1    0.0      0.0      0.0   -9.90      0.8      0.8    100     14.5     14.5   100     15.3    15.3     100     16.5    1.42      0      0      0      0      0    88.8    88.8      0     0.99     14.5     14.5     14.5   100    34.3     5.445    -9.9    0.000    0.000      98        0.00    0.000    0.000     236.1    236.1    1.42   135.1     598.2     165.1     165.1     104.2     104.2      34.8    0.000     0.000     0.000     0.000     0.000    1.42     0.00    0.00      0   -9.90   -9.00        9.5        9.5        9.6        9.6        9.6        9.6        9.6        9.6        9.9       11.7       11.7       11.7        0.0        0.0        0.0        0.0        0.0        0.0        0.0        0.0        0.0        0.0        0.0        0.0      5.1      14.6      19.0      26.3      33.6    391.85
    18     8  2011    49     2     237.2    17.2      0.0    0.0   16.8    0.4      0.0      0.0   -9.90      0.7      0.7    100     15.0     15.0   100     15.7    15.7     100     17.0    1.44      0      0      0      0      0    89.8    89.8      0     1.00     15.0     15.0     15.0   100    34.3     5.786    -9.9    0.000    0.000      98        0.00    0.000    0.000     237.2    237.2    1.44   138.2     606.9     167.5     167.5     107.0     107.0      35.3    0.000     0.000     0.000     0.000     0.000    1.44     0.00    0.00      0   -9.90   -9.00       23.0        6.7        6.8        7.0        9.6        9.6        9.6        9.6        9.9       11.7       11.7       11.7        0.0        0.0        0.0        0.0        0.0        0.0        0.0        0.0        0.0        0.0        0.0        0.0     17.2      15.0      20.1      27.4      34.7    391.85
    19     8  2011    50     2     237.8    17.5      0.0    0.0   16.3    1.2      0.0      0.0   -9.90      0.7      0.7    100     15.0     15.0   100     15.7    15.7     100     17.0    1.46      0      0      0      0      0    90.6    90.6      0     1.00     15.0     15.0     15.0   100    34.3     6.130    -9.9    0.000    0.000      98        0.00    0.000    0.000     237.8    237.8    1.46   140.9     615.5     169.9     169.9     108.4     108.4      35.8    0.000     0.000     0.000     0.000     0.000    1.46     0.00    0.00      0   -9.90   -9.00       25.9        9.1        5.5        4.5        9.6        9.6        9.6        9.6        9.9       11.7       11.7       11.7        0.0        0.0        0.0        0.0        0.0        0.0        0.0        0.0        0.0        0.0        0.0        0.0     17.5      15.0      19.9      27.3      34.6    391.85
    20     8  2011    51     2     236.7     4.4     10.6    0.0    4.4    0.0      0.0      0.0   -9.90      0.6      0.6    100     15.5     15.5   100     16.1    16.1     100     16.5    1.48      0      0      0      0      0    91.3    91.3      0     1.01     15.5     15.5     15.5   100    34.3     6.475    -9.9    0.000    0.000      98        0.00    0.000    0.000     236.7    236.7    1.48   141.9     624.2     172.3     172.3     111.2     111.2      36.3    0.000     0.000     0.000     0.000     0.000    1.48     0.00    0.00      0   -9.90   -9.00        9.6        9.6        9.6        9.6        9.6        9.6        9.6        9.6        9.7       11.7       11.7       11.7        0.0        0.0        0.0        0.0        0.0        0.0        0.0        0.0        0.0        0.0        0.0        0.0      4.4      15.4      19.0      26.9      34.7    391.85
    21     8  2011    52     2     235.0     3.4     10.0    0.0    3.4    0.0      0.0      0.0   -9.90      0.5      0.5    100     14.6     14.6   100     15.1    15.1     100     16.8    1.50      0      0      0      0      0    91.8    91.8      0     1.01     14.6     14.6     14.6   100    34.3     6.822    -9.9    0.000    0.000      98        0.00    0.000    0.000     235.0    235.0    1.50   142.2     632.8     174.7     174.7     109.6     109.6      36.8    0.000     0.000     0.000     0.000     0.000    1.50     0.00    0.00      0   -9.90   -9.00        9.5        9.5        9.5        9.5        9.5        9.5        9.5        9.5        9.6       11.7       11.7       11.7        0.0        0.0        0.0        0.0        0.0        0.0        0.0        0.0        0.0        0.0        0.0        0.0      3.4      14.4      19.5      26.6      33.6    391.85
    22     8  2011    53     2     233.0     2.2      9.5    0.0    2.2    0.0      0.0      0.0   -9.90      0.4      0.4    100     13.4     13.4   100     13.8    13.8     100     16.8    1.52      0      0      0      0      0    92.3    92.3      0     1.01     13.4     13.4     13.4   100    34.3     7.170    -9.9    0.000    0.000      98        0.00    0.000    0.000     233.0    233.0    1.52   142.2     641.3     177.0     177.0     107.2     107.2      37.3    0.000     0.000     0.000     0.000     0.000    1.52     0.00    0.00      0   -9.90   -9.00        9.4        9.4        9.4        9.4        9.4        9.4        9.4        9.4        9.4       11.7       11.7       11.7        0.0        0.0        0.0        0.0        0.0        0.0        0.0        0.0        0.0        0.0        0.0        0.0      2.2      13.2      19.6      25.7      31.9    391.85
    23     8  2011    54     2     236.2     0.5     18.7    0.0    0.5    0.0      0.0      0.0   -9.90      0.4      0.4    100     15.5     15.5   100     15.9    15.9     100     16.4    1.54     13      0      0      0      0    92.7    92.7      0     1.02     15.5     15.5     15.5   100    34.3     7.518    -9.9    0.000    0.000      98        0.00    0.000    0.000     236.2    236.2    1.54   147.3     649.8     179.4     179.4     115.2     115.2      37.8    0.000     0.000     0.000     0.000     0.000    1.54     0.00    0.00      0   -9.90   -9.00        9.6        9.6        9.6        9.6        9.6        9.6        9.6        9.6        9.6       11.7       11.7       11.7        0.0        0.0        0.0        0.0        0.0        0.0        0.0        0.0        0.0        0.0        0.0        0.0      0.5      15.2      18.8      26.6      34.5    391.85
    24     8  2011    55     2     234.5     5.9      7.3    0.0    5.9    0.0      0.0      0.0   -9.90      0.4      0.4    100     14.5     14.5   100     14.9    14.9     100     17.7    1.56      0      0      0      0      0    93.0    93.0      0     1.02     14.5     14.5     14.5   100    34.3     7.868    -9.9    0.000    0.000      99        0.00    0.000    0.000     234.5    234.5    1.56   147.8     658.3     181.7     181.7     113.6     113.6      38.3    0.000     0.000     0.000     0.000     0.000    1.56     0.00    0.00      0   -9.90   -9.00        9.5        9.5        9.5        9.5        9.5        9.5        9.5        9.5        9.5       11.6       11.7       11.7        0.0        0.0        0.0        0.0        0.0        0.0        0.0        0.0        0.0        0.0        0.0        0.0      5.9      14.3      21.4      27.9      34.4    391.85
    25     8  2011    56     3     234.6     2.6     12.7    0.0    2.6    0.0      0.0      0.0   -9.90      0.4      0.4    100     14.9     14.9   100     15.3    15.3     100     17.2    1.58      0      0      0      0      0    93.3    93.3      0     1.02     14.9     14.9     14.9   100    34.3     8.218    -9.9    0.000    0.000      99        0.00    0.000    0.000     234.6    234.6    1.58   150.7     666.7     184.0     184.0     116.3     116.3      38.8    0.000     0.000     0.000     0.000     0.000    1.58     0.00    0.00      0   -9.90   -9.00        9.5        9.5        9.6        9.6        9.6        9.6        9.6        9.6        9.6       11.4       11.7       11.7        0.0        0.0        0.0        0.0        0.0        0.0        0.0        0.0        0.0        0.0        0.0        0.0      2.6      14.7      20.5      27.5      34.5    391.85
    26     8  2011    57     3     231.6     5.0      6.0    0.0    5.0    0.0      0.0      0.0   -9.90      0.3      0.3    100     13.7     13.7   100     14.0    14.0     100     17.3    1.60      0      0      0      0      0    93.5    93.5      0     1.02     13.7     13.7     13.7   100    34.3     8.568    -9.9    0.000    0.000      99        0.00    0.000    0.000     231.6    231.6    1.60   150.7     675.1     186.4     186.4     113.6     113.6      39.3    0.000     0.000     0.000     0.000     0.000    1.60     0.00    0.00      0   -9.90   -9.00        9.4        9.4        9.4        9.4        9.4        9.4        9.4        9.4        9.4       11.0       11.7       11.7        0.0        0.0        0.0        0.0        0.0        0.0        0.0        0.0        0.0        0.0        0.0        0.0      5.0      13.4      20.7      26.8      32.8    391.85
    27     8  2011    58     3     232.5     3.5     12.7    0.0    3.5    0.0      0.0      0.0   -9.90      0.3      0.3    100     14.9     14.9   100     15.3    15.3     100     16.7    1.62      0      0      0      0      0    93.7    93.7      0     1.02     14.9     14.9     14.9   100    34.3     8.919     1.5    0.135    0.150      99        0.02    0.000    0.000     232.5    232.5    1.62   154.6     683.5     188.7     188.7     119.0     119.0      39.8    0.000     0.000     0.000     0.000     0.000    1.62     0.00    0.00      0   -9.90   -9.00        9.5        9.5        9.5        9.5        9.5        9.5        9.5        9.5        9.5       10.6       11.7       11.7        0.0        0.0        0.0        0.0        0.0        0.0        0.0        0.0        0.0        0.0        0.0        0.0      3.5      14.6      19.3      26.6      33.8    391.85
    28     8  2011    59     3     231.7     1.9     12.6    0.0    1.9    0.0      0.0      0.0   -9.90      0.3      0.3    100     15.0     15.0   100     15.3    15.3     100     16.7    1.64      1      0      0      0      0    93.8    93.8      0     1.02     15.0     15.0     15.0   100    34.3     9.270     1.9    0.172    0.191      99        0.02    0.000    0.000     231.7    231.7    1.64   156.5     691.8     191.0     191.0     120.7     120.7      40.3    0.000     0.000     0.000     0.000     0.000    1.64     0.00    0.00      0   -9.90   -9.00        9.5        9.5        9.6        9.6        9.6        9.6        9.6        9.6        9.6       10.3       11.7       11.7        0.0        0.0        0.0        0.0        0.0        0.0        0.0        0.0        0.0        0.0        0.0        0.0      1.9      14.7      19.3      26.6      34.0    391.85
    29     8  2011    60     3     230.9     9.2      5.4    0.0    9.2    0.0      0.0      0.0   -9.90      0.3      0.3    100     15.0     15.0   100     15.3    15.3     100     16.4    1.66      0      0      0      0      0    93.9    93.9      0     1.02     15.0     15.0     15.0   100    34.3     9.621     2.3    0.218    0.242      99        0.03    0.000    0.000     230.9    230.9    1.66   158.1     700.1     193.3     193.3     122.1     122.1      40.8    0.000     0.000     0.000     0.000     0.000    1.66     0.00    0.00      0   -9.90   -9.00        9.5        9.5        9.6        9.6        9.6        9.6        9.6        9.6        9.6       10.0       11.7       11.7        0.0        0.0        0.0        0.0        0.0        0.0        0.0        0.0        0.0        0.0        0.0        0.0      9.2      14.7      18.8      26.2      33.7    391.85
    30     8  2011    61     3     228.6     8.5      3.5    0.0    8.5    0.0      0.0      0.0   -9.90      0.3      0.3    100     14.0     14.0   100     14.3    14.3     100     17.6    1.68      0      0      0      0      0    94.0    94.0      0     1.03     14.0     14.0     14.0   100    34.3     9.973     2.8    0.275    0.306      99        0.04    0.000    0.000     228.6    228.6    1.68   158.1     708.4     195.5     195.5     120.0     120.0      41.3    0.000     0.000     0.000     0.000     0.000    1.68     0.00    0.00      0   -9.90   -9.00        9.4        9.4        9.4        9.4        9.4        9.4        9.4        9.4        9.4        9.7       11.7       11.7        0.0        0.0        0.0        0.0        0.0        0.0        0.0        0.0        0.0        0.0        0.0        0.0      8.5      13.7      21.2      27.3      33.5    391.85
    31     8  2011    62     3     229.9     0.7     15.6    0.0    0.7    0.0      0.0      0.0   -9.90      0.3      0.3    100     14.7     14.7   100     15.1    15.1     100     16.7    1.70     -9      0      0      0      0    93.4    93.4      0     1.01     14.7     14.7     14.7   100    34.3    10.320     3.4    0.347    0.385      99        0.05    0.000    0.000     229.9    229.9    1.70   161.3     716.6     197.8     197.8     124.7     124.7      41.8    0.000     0.000     0.000     0.000     0.000    1.70     0.00    0.00      0   -9.90   -9.00        9.5        9.5        9.5        9.5        9.5        9.5        9.5        9.5        9.5        9.6       11.7       11.7        0.0        0.0        0.0        0.0        0.0        0.0        0.0        0.0        0.0        0.0        0.0        0.0      0.7      14.6      19.5      26.7      33.9    391.85
     1     9  2011    63     3     228.6    10.1      2.9    0.0   10.0    0.0      0.0      0.0   -9.90      0.3      0.3    100     14.0     14.0   100     14.3    14.3     100     16.5    1.71     -9      0      0      0      0    93.5    93.5      0     1.01     14.0     14.0     14.0   100    34.3    10.667     4.1    0.435    0.484      99        0.06    0.000    0.000     228.6    228.6    1.71   161.9     724.8     200.1     200.1     123.6     123.6      42.3    0.000     0.000     0.000     0.000     0.000    1.71     0.00    0.00      0   -9.90   -9.00        9.4        9.4        9.5        9.5        9.5        9.5        9.5        9.5        9.5        9.5       11.7       11.7        0.0        0.0        0.0        0.0        0.0        0.0        0.0        0.0        0.0        0.0        0.0        0.0     10.1      13.9      18.9      25.8      32.6    391.85
     2     9  2011    64     3     229.1     7.0      8.3    0.0    7.0    0.0      0.0      0.0   -9.90      0.3      0.3    100     14.4     14.4   100     14.7    14.7     100     16.8    1.73     -9      0      0      0      0    93.6    93.6      0     1.01     14.4     14.4     14.4   100    34.3    11.013     4.9    0.544    0.604      99        0.07    0.000    0.000     229.1    229.1    1.73   164.3     732.9     202.3     202.3     126.3     126.3      42.7    0.000     0.000     0.000     0.000     0.000    1.73     0.00    0.00      0   -9.90   -9.00        9.5        9.5        9.5        9.5        9.5        9.5        9.5        9.5        9.5        9.5       11.7       11.7        0.0        0.0        0.0        0.0        0.0        0.0        0.0        0.0        0.0        0.0        0.0        0.0      7.0      14.2      19.7      26.6      33.6    391.85
     3     9  2011    65     3     229.7     6.6      9.0    0.0    6.6    0.0      0.0      0.0   -9.90      0.3      0.3    100     14.7     14.7   100     15.0    15.0     100     16.8    1.75     -9      0      0      0      0    93.6    93.6      0     1.01     14.7     14.7     14.7   100    34.3    11.359     5.9    0.676    0.751      99        0.08    0.000    0.000     229.7    229.7    1.75   166.7     741.1     204.6     204.6     128.9     128.9      43.2    0.000     0.000     0.000     0.000     0.000    1.75     0.00    0.00      0   -9.90   -9.00        9.5        9.5        9.5        9.5        9.5        9.5        9.5        9.5        9.5        9.5       11.7       11.7        0.0        0.0        0.0        0.0        0.0        0.0        0.0        0.0        0.0        0.0        0.0        0.0      6.6      14.5      19.5      26.7      34.0    391.85
     4     9  2011    66     3     227.4     7.0      4.3    0.0    7.0    0.0      0.0      0.0   -9.90      0.3      0.3    100     13.4     13.4   100     13.7    13.7     100     17.3    1.77     -9      0      0      0      0    93.7    93.7      0     1.01     13.4     13.4     13.4   100    34.3    11.704     7.1    0.835    0.927      99        0.10    0.000    0.000     227.4    227.4    1.77   166.2     749.2     206.8     206.8     125.6     125.6      43.7    0.000     0.000     0.000     0.000     0.000    1.77     0.00    0.00      0   -9.90   -9.00        9.4        9.4        9.4        9.4        9.4        9.4        9.4        9.4        9.4        9.4       11.7       11.7        0.0        0.0        0.0        0.0        0.0        0.0        0.0        0.0        0.0        0.0        0.0        0.0      7.0      13.3      20.5      26.6      32.8    391.85
     5     9  2011    67     3     228.7     8.9      6.8    0.0    8.9    0.0      0.0      0.0   -9.90      0.3      0.3    100     14.1     14.1   100     14.4    14.4     100     17.8    1.79     -9      0      0      0      0    93.7    93.7      0     1.00     14.1     14.1     14.1   100    34.3    12.048     8.5    1.025    1.138      99        0.12    0.000    0.000     228.7    228.7    1.79   169.3     757.2     209.0     209.0     129.6     129.6      44.2    0.000     0.000     0.000     0.000     0.000    1.79     0.00    0.00      0   -9.90   -9.00        9.4        9.4        9.5        9.5        9.5        9.5        9.5        9.5        9.5        9.5       11.7       11.7        0.0        0.0        0.0        0.0        0.0        0.0        0.0        0.0        0.0        0.0        0.0        0.0      8.9      14.0      21.6      28.0      34.4    391.85
     6     9  2011    68     3     228.6     5.0      9.4    0.0    5.0    0.0      0.0      0.0   -9.90      0.3      0.3    100     14.1     14.1   100     14.4    14.4     100     17.0    1.81     -9      0      0      0      0    93.8    93.8      0     1.00     14.1     14.1     14.1   100    34.3    12.392    10.0    1.243    1.381      99        0.15    0.000    0.000     228.6    228.6    1.81   171.5     765.3     211.2     211.2     131.3     131.3      44.6    0.000     0.000     0.000     0.000     0.000    1.81     0.00    0.00      0   -9.90   -9.00        9.4        9.4        9.5        9.5        9.5        9.5        9.5        9.5        9.5        9.5       11.6       11.7        0.0        0.0        0.0        0.0        0.0        0.0        0.0        0.0        0.0        0.0        0.0        0.0      5.0      14.1      20.1      26.9      33.7    391.85
     7     9  2011    69     4     228.6     7.2      7.5    0.0    7.2    0.0      0.0      0.0   -9.90      0.3      0.3    100     14.4     14.4   100     14.7    14.7     100     17.0    1.83     -9      0      0      0      0    93.8    93.8      0     1.00     14.4     14.4     14.4   100    34.3    12.735    11.6    1.472    1.635      99        0.17    0.000    0.000     228.6    228.6    1.83   174.2     773.3     213.5     213.5     133.8     133.8      45.1    0.000     0.000     0.000     0.000     0.000    1.83     0.00    0.00      0   -9.90   -9.00        9.5        9.5        9.5        9.5        9.5        9.5        9.5        9.5        9.5        9.5       11.4       11.7        0.0        0.0        0.0        0.0        0.0        0.0        0.0        0.0        0.0        0.0        0.0        0.0      7.2      14.4      19.9      27.0      34.1    391.85
     8     9  2011    70     4     226.3     1.2     10.5    0.0    1.2    0.0      0.0      0.0   -9.90      0.3      0.3    100     13.6     13.6   100     13.9    13.9     100     17.1    1.85     -9      0      0      0      0    93.8    93.8      0     1.00     13.6     13.6     13.6   100    34.3    13.077    13.1    1.711    1.901      99        0.19    0.000    0.000     226.3    226.3    1.85   174.8     781.3     215.7     215.7     132.5     132.5      45.6    0.000     0.000     0.000     0.000     0.000    1.85     0.00    0.00      0   -9.90   -9.00        9.4        9.4        9.5        9.5        9.5        9.5        9.5        9.5        9.5        9.5       11.0       11.7        0.0        0.0        0.0        0.0        0.0        0.0        0.0        0.0        0.0        0.0        0.0        0.0      1.2      13.7      20.3      26.8      33.2    391.85
     9     9  2011    71     4     226.6     7.2      7.5    0.0    7.2    0.0      0.0      0.0   -9.90      0.3      0.3    100     14.2     14.2   100     14.5    14.5     100     17.1    1.87     -9      0      0      0      0    93.9    93.9      0     1.00     14.2     14.2     14.2   100    34.3    13.418    14.6    1.960    2.178      99        0.22    0.000    0.000     226.6    226.6    1.87   177.8     789.2     217.9     217.9     136.3     136.3      46.1    0.000     0.000     0.000     0.000     0.000    1.87     0.00    0.00      0   -9.90   -9.00        9.5        9.5        9.5        9.5        9.5        9.5        9.5        9.5        9.5        9.5       10.6       11.7        0.0        0.0        0.0        0.0        0.0        0.0        0.0        0.0        0.0        0.0        0.0        0.0      7.2      14.3      20.2      27.2      34.2    391.85
    10     9  2011    72     4     226.8     5.5      9.9    0.0    5.5    0.0      0.0      0.0   -9.90      0.3      0.3    100     14.8     14.8   100     15.1    15.1     100     17.0    1.89     -9      0      0      0      0    93.9    93.9      0     0.99     14.8     14.8     14.8   100    34.3    13.758    16.1    2.220    2.466      99        0.24    0.000    0.000     226.8    226.8    1.89   180.7     797.2     220.0     220.0     140.2     140.2      46.5    0.000     0.000     0.000     0.000     0.000    1.89     0.00    0.00      0   -9.90   -9.00        9.5        9.5        9.6        9.6        9.6        9.6        9.6        9.6        9.6        9.6       10.3       11.7        0.0        0.0        0.0        0.0        0.0        0.0        0.0        0.0        0.0        0.0        0.0        0.0      5.5      14.9      19.9      27.4      35.0    391.85
    11     9  2011    73     4     225.4     4.0      9.2    0.0    4.0    0.0      0.0      0.0   -9.90      0.3      0.3    100     14.4     14.4   100     14.7    14.7     100     17.8    1.90     -9      0      0      0      0    93.9    93.9      0     0.99     14.4     14.4     14.4   100    34.3    14.098    17.7    2.490    2.766      99        0.27    0.000    0.000     225.4    225.4    1.90   181.6     805.1     222.2     222.2     140.1     140.1      47.0    0.000     0.000     0.000     0.000     0.000    1.90     0.00    0.00      0   -9.90   -9.00        9.5        9.5        9.5        9.5        9.5        9.5        9.5        9.5        9.5        9.5       10.0       11.7        0.0        0.0        0.0        0.0        0.0        0.0        0.0        0.0        0.0        0.0        0.0        0.0      4.0      14.6      21.6      28.5      35.4    391.85
    12     9  2011    74     4     223.1     2.0      9.5    0.0    2.0    0.0      0.0      0.0   -9.90      0.3      0.3    100     13.5     13.5   100     13.8    13.8     100     17.6    1.92     -9      0      0      0      0    93.9    93.9      0     0.99     13.5     13.5     13.5   100    34.3    14.437    19.2    2.770    3.077      99        0.30    0.000    0.000     223.1    223.1    1.92   181.5     813.0     224.4     224.4     137.9     137.9      47.5    0.000     0.000     0.000     0.000     0.000    1.92     0.00    0.00      0   -9.90   -9.00        9.4        9.4        9.5        9.5        9.5        9.5        9.5        9.5        9.5        9.5        9.7       11.7        0.0        0.0        0.0        0.0        0.0        0.0        0.0        0.0        0.0        0.0        0.0        0.0      2.0      13.7      21.2      27.6      33.9    391.85
    13     9  2011    75     4     222.3     3.0      9.7    0.0    3.0    0.0      0.0      0.0   -9.90      0.3      0.3    100     13.3     13.3   100     13.5    13.5     100     17.2    1.94     -9      0      0      0      0    93.9    93.9      0     0.99     13.3     13.3     13.3   100    34.3    14.775    20.7    3.060    3.400      99        0.32    0.000    0.000     222.3    222.3    1.94   182.6     820.8     226.6     226.6     138.3     138.3      47.9    0.000     0.000     0.000     0.000     0.000    1.94     0.00    0.00      0   -9.90   -9.00        9.4        9.4        9.4        9.4        9.4        9.4        9.4        9.4        9.4        9.4        9.6       11.7        0.0        0.0        0.0        0.0        0.0        0.0        0.0        0.0        0.0        0.0        0.0        0.0      3.0      13.5      20.3      26.7      33.1    391.85
    14     9  2011    76     4     224.1    14.0      2.4    0.0   13.8    0.1      0.0      0.0   -9.90      0.3      0.3    100     14.1     14.1   100     14.4    14.4     100     17.7    1.96     -9      0     -9      0      0    93.4    93.4      0     0.97     14.1     14.1     14.1   100    34.3    15.109    22.2    3.360    3.733      99        0.35    0.000    0.000     224.1    224.1    1.96   186.2     828.6     228.7     228.7     143.7     143.7      48.4    0.000     0.000     0.000     0.000     0.000    1.96     0.00    0.00      0   -9.90   -9.00        9.5        9.5        9.5        9.5        9.5        9.5        9.5        9.5        9.5        9.5        9.5       11.7        0.0        0.0        0.0        0.0        0.0        0.0        0.0        0.0        0.0        0.0        0.0        0.0     14.0      14.4      21.4      28.3      35.2    391.85
    15     9  2011    77     4     223.9     0.8     13.1    0.0    0.8    0.0      0.0      0.0   -9.90      0.4      0.4    100     13.8     13.8   100     14.2    14.2     100     17.3    1.98     -9      0     -9      0      0    92.7    92.7      0     0.96     13.8     13.8     13.8   100    34.3    15.438    23.8    3.668    4.076      99        0.37    0.000    0.000     223.9    223.9    1.98   187.8     836.4     230.9     230.9     144.6     144.6      48.8    0.000     0.000     0.000     0.000     0.000    1.98     0.00    0.00      0   -9.90   -9.00        9.5        9.5        9.5        9.5        9.5        9.5        9.5        9.5        9.5        9.5        9.5       11.7        0.0        0.0        0.0        0.0        0.0        0.0        0.0        0.0        0.0        0.0        0.0        0.0      0.8      14.3      20.5      27.6      34.6    391.85
    16     9  2011    78     4     230.8    22.6      0.0    0.0   21.6    1.0      0.0      0.0   -9.90      0.5      0.5    100     14.2     14.2   100     14.7    14.7     100     16.6    2.00     -9      0     -9      0      0    92.0    92.0      0     0.94     14.2     14.2     14.2   100    34.3    15.762    25.3    3.986    4.429      99        0.40    0.000    0.000     230.8    230.8    2.00   196.5     844.2     233.0     233.0     148.7     148.7      49.3    0.000     0.000     0.000     0.000     0.000    2.00     0.00    0.00      0   -9.90   -9.00       28.1        6.6        6.7        7.5        9.5        9.5        9.5        9.5        9.5        9.5        9.5       11.7        0.0        0.0        0.0        0.0        0.0        0.0        0.0        0.0        0.0        0.0        0.0        0.0     22.6      15.0      19.2      27.1      35.0    391.85
    17     9  2011    79     4     225.6     7.8      0.0    0.0    7.8    0.1      0.0      0.0   -9.90      0.5      0.5    100     12.5     12.5   100     13.0    13.0     100     16.9    2.01     -9      0     -9      0      0    91.1    91.1      0     0.93     12.5     12.5     12.5   100    34.3    16.080    26.8    4.312    4.791      99        0.43    0.000    0.000     225.6    225.6    2.01   192.9     852.0     235.2     235.2     143.6     143.6      49.8    0.000     0.000     0.000     0.000     0.000    2.01     0.00    0.00      0   -9.90   -9.00       17.2        9.5        8.4        6.7        9.5        9.5        9.5        9.5        9.5        9.5        9.5       11.7        0.0        0.0        0.0        0.0        0.0        0.0        0.0        0.0        0.0        0.0        0.0        0.0      7.8      13.5      19.8      26.4      33.0    391.85
    18     9  2011    80     4     224.3     0.8     11.8    0.0    0.8    0.0      0.0      0.0   -9.90      0.7      0.7    100     13.2     13.2   100     13.8    13.8     100     16.4    2.03     -9      0     -9      0      0    90.1    90.1      0     0.91     13.2     13.2     13.2   100    34.3    16.392    28.3    4.645    5.162      99        0.46    0.000    0.000     224.3    224.3    2.03   193.3     859.7     237.3     237.3     149.4     149.4      50.2    0.000     0.000     0.000     0.000     0.000    2.03     0.00    0.00      0   -9.90   -9.00        9.5        9.5        9.5        9.5        9.5        9.5        9.5        9.5        9.5        9.5        9.5       11.7        0.0        0.0        0.0        0.0        0.0        0.0        0.0        0.0        0.0        0.0        0.0        0.0      0.8      14.5      18.7      26.4      34.1    391.85
    19     9  2011    81     4     223.7     3.6      9.2    0.0    3.6    0.0      0.0      0.0   -9.90      0.7      0.7    100     12.7     12.7   100     13.4    13.4     100     17.1    2.05     -9      0     -9      0      0    89.0    89.0      0     0.89     12.7     12.7     12.7   100    34.3    16.697    29.9    4.987    5.541      99        0.48    0.000    0.000     223.7    223.7    2.05   194.5     867.4     239.4     239.4     149.6     149.6      50.7    0.000     0.000     0.000     0.000     0.000    2.05     0.00    0.00      0   -9.90   -9.00        9.5        9.5        9.5        9.5        9.5        9.5        9.5        9.5        9.5        9.5        9.5       11.7        0.0        0.0        0.0        0.0        0.0        0.0        0.0        0.0        0.0        0.0        0.0        0.0      3.6      14.2      20.1      27.3      34.4    391.85
    20     9  2011    82     4     222.0    10.7      0.3    0.0   10.7    0.0      0.0      0.0   -9.90      0.8      0.8    100     11.9     11.9   100     12.7    12.7     100     16.7    2.07     -9      0     -9      0      0    87.8    87.8      0     0.87     11.9     11.9     11.9   100    34.3    16.994    31.4    5.335    5.927      99        0.51    0.000    0.000     222.0    222.0    2.07   195.3     875.1     241.5     241.5     148.4     148.4      51.1    0.000     0.000     0.000     0.000     0.000    2.07     0.00    0.00      0   -9.90   -9.00        9.4        9.4        9.4        9.4        9.4        9.4        9.4        9.4        9.4        9.4        9.4       11.5        0.0        0.0        0.0        0.0        0.0        0.0        0.0        0.0        0.0        0.0        0.0        0.0     10.7      13.7      19.4      26.3      33.2    391.85
    21     9  2011    83     4     219.9     2.8      7.0    0.0    2.8    0.0      0.0      0.0   -9.90      0.9      0.9    100     11.0     11.0   100     11.9    11.9     100     17.3    2.09     -9      0     -9      0      0    86.4    86.4      0     0.84     11.0     11.0     11.0   100    34.3    17.283    32.9    5.689    6.321      99        0.54    0.000    0.000     219.9    219.9    2.09   196.0     882.8     243.7     243.7     147.0     147.0      51.6    0.000     0.000     0.000     0.000     0.000    2.09     0.00    0.00      0   -9.90   -9.00        9.3        9.3        9.4        9.4        9.4        9.4        9.4        9.4        9.4        9.4        9.4       11.2        0.0        0.0        0.0        0.0        0.0        0.0        0.0        0.0        0.0        0.0        0.0        0.0      2.8      13.1      20.7      26.9      33.0    391.85
    22     9  2011    84     4     220.2     7.3      5.3    0.0    7.3    0.0      0.0      0.0   -9.90      1.1      1.1    100     11.2     11.2   100     12.2    12.2     100     17.2    2.10     -9      0     -9      0      0    84.9    84.9      0     0.82     11.2     11.2     11.2   100    34.3    17.563    34.4    6.049    6.721      99        0.57    0.000    0.000     220.2    220.2    2.10   199.1     890.4     245.8     245.8     151.0     151.0      52.0    0.000     0.000     0.000     0.000     0.000    2.10     0.00    0.00      0   -9.90   -9.00        9.4        9.4        9.5        9.5        9.5        9.5        9.5        9.5        9.5        9.5        9.5       10.8        0.0        0.0        0.0        0.0        0.0        0.0        0.0        0.0        0.0        0.0        0.0        0.0      7.3      13.7      20.3      27.1      33.8    391.85
    23     9  2011    85     4     222.3     2.1     13.1    0.0    2.1    0.0      0.0      0.0   -9.90      1.3      1.3    100     11.8     11.8   100     13.1    13.1     100     17.2    2.12     -9      0     -9      0      0    83.1    83.1      0     0.79     11.8     11.8     11.8   100    34.3    17.832    36.0    6.414    7.127      99        0.59    0.000    0.000     222.3    222.3    2.12   203.8     898.0     247.9     247.9     158.4     158.4      52.5    0.000     0.000     0.000     0.000     0.000    2.12     0.00    0.00      0   -9.90   -9.00        9.5        9.5        9.6        9.6        9.6        9.6        9.6        9.6        9.6        9.6        9.6       10.5        0.0        0.0        0.0        0.0        0.0        0.0        0.0        0.0        0.0        0.0        0.0        0.0      2.1      15.0      20.4      28.2      36.0    391.85
    24     9  2011    86     4     218.6     4.0      4.1    0.0    4.0    0.0      0.0      0.0   -9.90      1.4      1.4    100     10.4     10.4   100     11.7    11.7     100     17.0    2.14     -9      0     -9      0      0    81.1    81.1      0     0.75     10.4     10.4     10.4   100    34.3    18.091    37.5    6.783    7.537      99        0.62    0.000    0.000     218.6    218.6    2.14   202.5     905.6     250.0     250.0     153.9     153.9      52.9    0.000     0.000     0.000     0.000     0.000    2.14     0.00    0.00      0   -9.90   -9.00        9.4        9.4        9.5        9.5        9.5        9.5        9.5        9.5        9.5        9.5        9.5       10.1        0.0        0.0        0.0        0.0        0.0        0.0        0.0        0.0        0.0        0.0        0.0        0.0      4.0      13.8      19.9      26.8      33.8    391.85
    25     9  2011    87     4     222.7    15.3      0.0    0.0   15.1    0.2      0.0      0.0   -9.90      1.5      1.5    100      9.5      9.5   100     11.0    11.0     100     17.1    2.16     -9      0     -9      0      0    78.9    78.9      0     0.72      9.5      9.5      9.5   100    34.3    18.338    39.0    7.156    7.951      99        0.65    0.000    0.000     222.7    222.7    2.16   208.4     913.2     252.1     252.1     153.0     153.0      53.4    0.000     0.000     0.000     0.000     0.000    2.16     0.00    0.00      0   -9.90   -9.00       20.4        6.6        7.8        9.5        9.5        9.5        9.5        9.5        9.5        9.5        9.5       10.1        0.0        0.0        0.0        0.0        0.0        0.0        0.0        0.0        0.0        0.0        0.0        0.0     15.3      13.3      20.3      26.8      33.3    391.85
[...]
    10    12  2015    -9     0     224.8     6.7      0.0    0.0    6.7    0.0      0.0      0.0   -9.90     12.0      8.3     69      0.0      0.0   100     12.0     8.3      69     17.7    2.28     -9     -9     -9      0     -9     0.0     0.0      0    -9.00      0.0      0.0      0.0   100    34.5    19.779    48.2    9.529   10.587      99        0.82    0.000    0.000     224.8    224.8    2.28   223.2     965.7     266.5     266.5     150.4     168.4      56.5    0.000     0.000     0.000     0.000     0.000    2.28     0.00    0.00      0   -9.90   -9.00        6.3       11.7       11.7       11.7       10.4        9.4        9.4        9.4        9.4        9.4        9.4        9.4        0.0        0.0        0.0        0.0        0.0        0.0        0.0        0.0        0.0        0.0        0.0        0.0      6.7      10.9      21.4      27.7      33.9    401.01
    11    12  2015    -9     0     224.6     8.0      0.0    0.0    8.0    0.0      0.0      0.0   -9.90     12.5      8.2     66      0.0      0.0   100     12.5     8.2      66     16.2    2.28     -9     -9     -9      0     -9     0.0     0.0      0    -9.00      0.0      0.0      0.0   100    34.5    19.779    48.2    9.529   10.587      99        0.82    0.000    0.000     224.6    224.6    2.28   222.9     965.7     266.5     266.5     152.7     168.4      56.5    0.000     0.000     0.000     0.000     0.000    2.28     0.00    0.00      0   -9.90   -9.00        6.1       11.7       11.7       11.7       10.4        9.4        9.4        9.4        9.4        9.4        9.4        9.4        0.0        0.0        0.0        0.0        0.0        0.0        0.0        0.0        0.0        0.0        0.0        0.0      8.0      11.4      18.4      25.8      33.2    401.01
    12    12  2015    -9     0     221.5     2.2      0.0    0.0    2.2    0.0      0.0      0.0   -9.90     11.7      5.3     45      0.0      0.0   100     11.7     5.3      45     17.2    2.28     -9     -9     -9      0     -9     0.0     0.0      0    -9.00      0.0      0.0      0.0   100    34.5    19.779    48.2    9.529   10.587      99        0.82    0.000    0.000     221.5    221.5    2.28   219.8     965.7     266.5     266.5     148.9     168.4      56.5    0.000     0.000     0.000     0.000     0.000    2.28     0.00    0.00      0   -9.90   -9.00        2.9       11.7       11.7       11.7       10.4        9.4        9.4        9.4        9.4        9.4        9.4        9.4        0.0        0.0        0.0        0.0        0.0        0.0        0.0        0.0        0.0        0.0        0.0        0.0      2.2      10.6      20.4      26.6      32.9    401.01
    13    12  2015    -9     0     221.4     6.8      0.0    0.0    6.8    0.0      0.0      0.0   -9.90     13.3      6.9     52      0.0      0.0   100     13.3     6.9      52     17.0    2.28     -9     -9     -9      0     -9     0.0     0.0      0    -9.00      0.0      0.0      0.0   100    34.5    19.779    48.2    9.529   10.587      99        0.82    0.000    0.000     221.4    221.4    2.28   219.8     965.7     266.5     266.5     156.3     168.4      56.5    0.000     0.000     0.000     0.000     0.000    2.28     0.00    0.00      0   -9.90   -9.00        2.9       11.7       11.7       11.7       10.4        9.4        9.4        9.4        9.4        9.4        9.4        9.4        0.0        0.0        0.0        0.0        0.0        0.0        0.0        0.0        0.0        0.0        0.0        0.0      6.8      12.1      20.1      27.8      35.5    401.01
    14    12  2015    -9     0     220.0     2.2      0.0    0.0    2.2    0.0      0.0      0.0   -9.90     12.6      3.7     29      0.0      0.0   100     12.6     3.7      29     17.0    2.28     -9     -9     -9      0     -9     0.0     0.0      0    -9.00      0.0      0.0      0.0   100    34.5    19.779    48.2    9.529   10.587      99        0.82    0.000    0.000     220.0    220.0    2.28   218.3     965.7     266.5     266.5     152.8     168.4      56.5    0.000     0.000     0.000     0.000     0.000    2.28     0.00    0.00      0   -9.90   -9.00        1.4       11.7       11.7       11.7       10.4        9.4        9.4        9.4        9.4        9.4        9.4        9.4        0.0        0.0        0.0        0.0        0.0        0.0        0.0        0.0        0.0        0.0        0.0        0.0      2.2      11.4      20.0      27.1      34.1    401.01
    15    12  2015    -9     0     227.6    16.3      0.0    0.0   16.3    0.0      0.0      0.0   -9.90     12.7      8.7     69      0.0      0.0   100     12.7     8.7      69     16.8    2.28     -9     -9     -9      0     -9     0.0     0.0      0    -9.00      0.0      0.0      0.0   100    34.5    19.779    48.2    9.529   10.587      99        0.82    0.000    0.000     227.6    227.6    2.28   225.9     965.7     266.5     266.5     153.3     168.4      56.5    0.000     0.000     0.000     0.000     0.000    2.28     0.00    0.00      0   -9.90   -9.00        9.1       11.7       11.7       11.7       10.4        9.4        9.4        9.4        9.4        9.4        9.4        9.4        0.0        0.0        0.0        0.0        0.0        0.0        0.0        0.0        0.0        0.0        0.0        0.0     16.3      11.5      19.6      26.9      34.1    401.01
    16    12  2015    -9     0     226.4     7.4      0.0    0.0    7.4    0.0      0.0      0.0   -9.90     12.3      8.5     70      0.0      0.0   100     12.3     8.5      70     17.8    2.28     -9     -9     -9      0     -9     0.0     0.0      0    -9.00      0.0      0.0      0.0   100    34.5    19.779    48.2    9.529   10.587      99        0.82    0.000    0.000     226.4    226.4    2.28   224.8     965.7     266.5     266.5     151.6     168.4      56.5    0.000     0.000     0.000     0.000     0.000    2.28     0.00    0.00      0   -9.90   -9.00        8.0       11.7       11.7       11.7       10.4        9.4        9.4        9.4        9.4        9.4        9.4        9.4        0.0        0.0        0.0        0.0        0.0        0.0        0.0        0.0        0.0        0.0        0.0        0.0      7.4      11.2      21.7      28.1      34.6    401.01
    17    12  2015    -9     0     222.0     2.3      0.0    0.0    2.3    0.0      0.0      0.0   -9.90     12.7      6.7     52      0.0      0.0   100     12.7     6.7      52     15.9    2.28     -9     -9     -9      0     -9     0.0     0.0      0    -9.00      0.0      0.0      0.0   100    34.5    19.779    48.2    9.529   10.587      99        0.82    0.000    0.000     222.0    222.0    2.28   220.4     965.7     266.5     266.5     153.6     168.4      56.5    0.000     0.000     0.000     0.000     0.000    2.28     0.00    0.00      0   -9.90   -9.00        3.5       11.7       11.7       11.7       10.4        9.4        9.4        9.4        9.4        9.4        9.4        9.4        0.0        0.0        0.0        0.0        0.0        0.0        0.0        0.0        0.0        0.0        0.0        0.0      2.3      11.6      17.9      25.6      33.4    401.01
    18    12  2015    -9     0     220.9     4.4      0.0    0.0    4.4    0.0      0.0      0.0   -9.90     11.7      5.5     47      0.0      0.0   100     11.7     5.5      47     17.6    2.28     -9     -9     -9      0     -9     0.0     0.0      0    -9.00      0.0      0.0      0.0   100    34.5    19.779    48.2    9.529   10.587      99        0.82    0.000    0.000     220.9    220.9    2.28   219.2     965.7     266.5     266.5     149.2     168.4      56.5    0.000     0.000     0.000     0.000     0.000    2.28     0.00    0.00      0   -9.90   -9.00        2.3       11.7       11.7       11.7       10.4        9.4        9.4        9.4        9.4        9.4        9.4        9.4        0.0        0.0        0.0        0.0        0.0        0.0        0.0        0.0        0.0        0.0        0.0        0.0      4.4      10.7      21.2      27.3      33.5    401.01
    19    12  2015    -9     0     220.8     5.6      0.0    0.0    5.6    0.0      0.0      0.0   -9.90     12.2      5.7     46      0.0      0.0   100     12.2     5.7      46     17.4    2.28     -9     -9     -9      0     -9     0.0     0.0      0    -9.00      0.0      0.0      0.0   100    34.5    19.779    48.2    9.529   10.587      99        0.82    0.000    0.000     220.8    220.8    2.28   219.2     965.7     266.5     266.5     151.3     168.4      56.5    0.000     0.000     0.000     0.000     0.000    2.28     0.00    0.00      0   -9.90   -9.00        2.3       11.7       11.7       11.7       10.4        9.4        9.4        9.4        9.4        9.4        9.4        9.4        0.0        0.0        0.0        0.0        0.0        0.0        0.0        0.0        0.0        0.0        0.0        0.0      5.6      11.1      20.9      27.5      34.1    401.01
    20    12  2015    -9     0     223.4    10.8      0.0    0.0   10.8    0.0      0.0      0.0   -9.90     12.3      8.2     67      0.0      0.0   100     12.3     8.2      67     17.2    2.28     -9     -9     -9      0     -9     0.0     0.0      0    -9.00      0.0      0.0      0.0   100    34.5    19.779    48.2    9.529   10.587      99        0.82    0.000    0.000     223.4    223.4    2.28   221.8     965.7     266.5     266.5     151.4     168.4      56.5    0.000     0.000     0.000     0.000     0.000    2.28     0.00    0.00      0   -9.90   -9.00        4.9       11.7       11.7       11.7       10.4        9.4        9.4        9.4        9.4        9.4        9.4        9.4        0.0        0.0        0.0        0.0        0.0        0.0        0.0        0.0        0.0        0.0        0.0        0.0     10.8      11.1      20.4      27.1      33.9    401.01
    21    12  2015    -9     0     221.0     2.3      0.0    0.0    2.3    0.0      0.0      0.0   -9.90     12.4      4.7     38      0.0      0.0   100     12.4     4.7      38     17.2    2.28     -9     -9     -9      0     -9     0.0     0.0      0    -9.00      0.0      0.0      0.0   100    34.5    19.779    48.2    9.529   10.587      99        0.82    0.000    0.000     221.0    221.0    2.28   219.3     965.7     266.5     266.5     152.1     168.4      56.5    0.000     0.000     0.000     0.000     0.000    2.28     0.00    0.00      0   -9.90   -9.00        2.4       11.7       11.7       11.7       10.4        9.4        9.4        9.4        9.4        9.4        9.4        9.4        0.0        0.0        0.0        0.0        0.0        0.0        0.0        0.0        0.0        0.0        0.0        0.0      2.3      11.3      20.3      27.2      34.0    401.01
    22    12  2015    -9     0     222.7    10.0      0.0    0.0   10.0    0.0      0.0      0.0   -9.90     13.4      8.3     62      0.0      0.0   100     13.4     8.3      62     15.9    2.28     -9     -9     -9      0     -9     0.0     0.0      0    -9.00      0.0      0.0      0.0   100    34.5    19.779    48.2    9.529   10.587      99        0.82    0.000    0.000     222.7    222.7    2.28   221.1     965.7     266.5     266.5     156.4     168.4      56.5    0.000     0.000     0.000     0.000     0.000    2.28     0.00    0.00      0   -9.90   -9.00        4.2       11.7       11.7       11.7       10.4        9.4        9.4        9.4        9.4        9.4        9.4        9.4        0.0        0.0        0.0        0.0        0.0        0.0        0.0        0.0        0.0        0.0        0.0        0.0     10.0      12.2      17.8      26.1      34.5    401.01
    23    12  2015    -9     0     220.6     2.3      0.0    0.0    2.3    0.0      0.0      0.0   -9.90     12.9      4.4     34      0.0      0.0   100     12.9     4.4      34     17.5    2.28     -9     -9     -9      0     -9     0.0     0.0      0    -9.00      0.0      0.0      0.0   100    34.5    19.779    48.2    9.529   10.587      99        0.82    0.000    0.000     220.6    220.6    2.28   219.0     965.7     266.5     266.5     154.3     168.4      56.5    0.000     0.000     0.000     0.000     0.000    2.28     0.00    0.00      0   -9.90   -9.00        2.0       11.7       11.7       11.7       10.4        9.4        9.4        9.4        9.4        9.4        9.4        9.4        0.0        0.0        0.0        0.0        0.0        0.0        0.0        0.0        0.0        0.0        0.0        0.0      2.3      11.7      21.1      28.1      35.2    401.01
    24    12  2015    -9     0     220.5     5.2      0.0    0.0    5.2    0.0      0.0      0.0   -9.90     11.8      5.3     45      0.0      0.0   100     11.8     5.3      45     17.1    2.28     -9     -9     -9      0     -9     0.0     0.0      0    -9.00      0.0      0.0      0.0   100    34.5    19.779    48.2    9.529   10.587      99        0.82    0.000    0.000     220.5    220.5    2.28   218.9     965.7     266.5     266.5     149.4     168.4      56.5    0.000     0.000     0.000     0.000     0.000    2.28     0.00    0.00      0   -9.90   -9.00        2.0       11.7       11.7       11.7       10.4        9.4        9.4        9.4        9.4        9.4        9.4        9.4        0.0        0.0        0.0        0.0        0.0        0.0        0.0        0.0        0.0        0.0        0.0        0.0      5.2      10.7      20.1      26.5      32.9    401.01
    25    12  2015    -9     0     221.9     9.0      0.0    0.0    9.0    0.0      0.0      0.0   -9.90     12.8      7.6     59      0.0      0.0   100     12.8     7.6      59     16.8    2.28     -9     -9     -9      0     -9     0.0     0.0      0    -9.00      0.0      0.0      0.0   100    34.5    19.779    48.2    9.529   10.587      99        0.82    0.000    0.000     221.9    221.9    2.28   220.2     965.7     266.5     266.5     154.0     168.4      56.5    0.000     0.000     0.000     0.000     0.000    2.28     0.00    0.00      0   -9.90   -9.00        3.4       11.7       11.7       11.7       10.4        9.4        9.4        9.4        9.4        9.4        9.4        9.4        0.0        0.0        0.0        0.0        0.0        0.0        0.0        0.0        0.0        0.0        0.0        0.0      9.0      11.7      19.7      27.0      34.4    401.01
    26    12  2015    -9     0     221.0     5.0      0.0    0.0    5.0    0.0      0.0      0.0   -9.90     12.4      5.9     48      0.0      0.0   100     12.4     5.9      48     16.7    2.28     -9     -9     -9      0     -9     0.0     0.0      0    -9.00      0.0      0.0      0.0   100    34.5    19.779    48.2    9.529   10.587      99        0.82    0.000    0.000     221.0    221.0    2.28   219.4     965.7     266.5     266.5     151.9     168.4      56.5    0.000     0.000     0.000     0.000     0.000    2.28     0.00    0.00      0   -9.90   -9.00        2.5       11.7       11.7       11.7       10.4        9.4        9.4        9.4        9.4        9.4        9.4        9.4        0.0        0.0        0.0        0.0        0.0        0.0        0.0        0.0        0.0        0.0        0.0        0.0      5.0      11.2      19.4      26.4      33.4    401.01
    27    12  2015    -9     0     219.6     1.5      0.0    0.0    1.5    0.0      0.0      0.0   -9.90     13.0      2.9     22      0.0      0.0   100     13.0     2.9      22     16.4    2.28     -9     -9     -9      0     -9     0.0     0.0      0    -9.00      0.0      0.0      0.0   100    34.5    19.779    48.2    9.529   10.587      99        0.82    0.000    0.000     219.6    219.6    2.28   218.0     965.7     266.5     266.5     154.8     168.4      56.5    0.000     0.000     0.000     0.000     0.000    2.28     0.00    0.00      0   -9.90   -9.00        1.2       11.6       11.7       11.7       10.4        9.4        9.4        9.4        9.4        9.4        9.4        9.4        0.0        0.0        0.0        0.0        0.0        0.0        0.0        0.0        0.0        0.0        0.0        0.0      1.5      11.8      18.9      26.6      34.3    401.01
    28    12  2015    -9     0     221.4     8.4      0.0    0.0    8.4    0.0      0.0      0.0   -9.90     13.0      6.7     51      0.0      0.0   100     13.0     6.7      51     16.9    2.28     -9     -9     -9      0     -9     0.0     0.0      0    -9.00      0.0      0.0      0.0   100    34.5    19.779    48.2    9.529   10.587      99        0.82    0.000    0.000     221.4    221.4    2.28   219.7     965.7     266.5     266.5     154.9     168.4      56.5    0.000     0.000     0.000     0.000     0.000    2.28     0.00    0.00      0   -9.90   -9.00        2.9       11.6       11.7       11.7       10.4        9.4        9.4        9.4        9.4        9.4        9.4        9.4        0.0        0.0        0.0        0.0        0.0        0.0        0.0        0.0        0.0        0.0        0.0        0.0      8.4      11.9      19.8      27.3      34.8    401.01
    29    12  2015    -9     0     221.2     5.8      0.0    0.0    5.8    0.0      0.0      0.0   -9.90     12.1      6.0     50      0.0      0.0   100     12.1     6.0      50     17.3    2.28     -9     -9     -9      0     -9     0.0     0.0      0    -9.00      0.0      0.0      0.0   100    34.5    19.779    48.2    9.529   10.587      99        0.82    0.000    0.000     221.2    221.2    2.28   219.5     965.7     266.5     266.5     150.7     168.4      56.5    0.000     0.000     0.000     0.000     0.000    2.28     0.00    0.00      0   -9.90   -9.00        2.7       11.6       11.7       11.7       10.4        9.4        9.4        9.4        9.4        9.4        9.4        9.4        0.0        0.0        0.0        0.0        0.0        0.0        0.0        0.0        0.0        0.0        0.0        0.0      5.8      11.0      20.7      27.1      33.5    401.01
    30    12  2015    -9     0     219.6     0.7      0.0    0.0    0.7    0.0      0.0      0.0   -9.90     13.4      2.3     17      0.0      0.0   100     13.4     2.3      17     15.8    2.28     -9     -9     -9      0     -9     0.0     0.0      0    -9.00      0.0      0.0      0.0   100    34.5    19.779    48.2    9.529   10.587      99        0.82    0.000    0.000     219.6    219.6    2.28   217.9     965.7     266.5     266.5     156.7     168.4      56.5    0.000     0.000     0.000     0.000     0.000    2.28     0.00    0.00      0   -9.90   -9.00        1.2       11.6       11.7       11.7       10.4        9.4        9.4        9.4        9.4        9.4        9.4        9.4        0.0        0.0        0.0        0.0        0.0        0.0        0.0        0.0        0.0        0.0        0.0        0.0      0.7      12.2      17.6      26.0      34.4    401.01
    31    12  2015    -9     0     222.6    10.7      0.0    0.0   10.7    0.0      0.0      0.0   -9.90     11.7      7.7     66      0.0      0.0   100     11.7     7.7      66     17.7    2.28     -9     -9     -9      0     -9     0.0     0.0      0    -9.00      0.0      0.0      0.0   100    34.5    19.779    48.2    9.529   10.587      99        0.82    0.000    0.000     222.6    222.6    2.28   220.9     965.7     266.5     266.5     149.2     168.4      56.5    0.000     0.000     0.000     0.000     0.000    2.28     0.00    0.00      0   -9.90   -9.00        4.2       11.6       11.7       11.7       10.4        9.4        9.4        9.4        9.4        9.4        9.4        9.4        0.0        0.0        0.0        0.0        0.0        0.0        0.0        0.0        0.0        0.0        0.0        0.0     10.7      10.7      21.4      27.3      33.3    401.01
