AquaCrop 7.1 (August 2023) - Output created on (date) : 16-01-2026   at (time) : 12:17:22
Biomass and Yield at Multiple cuttings

   Run:   1
    Nr   Day  Month Year   DAP Interval  Biomass    Sum(B)   Dry-Yield  Sum(Y) Fresh-Yield  Sum(Y)
                                 days     ton/ha    ton/ha    ton/ha    ton/ha    ton/ha    ton/ha
     0     1     7  2011                             0.000               0.000               0.000
  9999     1     1  2012                            19.713               9.497              10.552

   Run:   2
    Nr   Day  Month Year   DAP Interval  Biomass    Sum(B)   Dry-Yield  Sum(Y) Fresh-Yield  Sum(Y)
                                 days     ton/ha    ton/ha    ton/ha    ton/ha    ton/ha    ton/ha
     0     1     7  2012                             0.000               0.000               0.000
  9999     1     1  2013                            19.708               9.495              10.550

   Run:   3
    Nr   Day  Month Year   DAP Interval  Biomass    Sum(B)   Dry-Yield  Sum(Y) Fresh-Yield  Sum(Y)
                                 days     ton/ha    ton/ha    ton/ha    ton/ha    ton/ha    ton/ha
     0     1     7  2013                             0.000               0.000               0.000
  9999     1     1  2014                            19.953               9.612              10.680

   Run:   4
    Nr   Day  Month Year   DAP Interval  Biomass    Sum(B)   Dry-Yield  Sum(Y) Fresh-Yield  Sum(Y)
                                 days     ton/ha    ton/ha    ton/ha    ton/ha    ton/ha    ton/ha
     0     1     7  2014                             0.000               0.000               0.000
  9999     1     1  2015                            19.780               9.529              10.588

   Run:   5
    Nr   Day  Month Year   DAP Interval  Biomass    Sum(B)   Dry-Yield  Sum(Y) Fresh-Yield  Sum(Y)
                                 days     ton/ha    ton/ha    ton/ha    ton/ha    ton/ha    ton/ha
     0     1     7  2015                             0.000               0.000               0.000
  9999     1     1  2016                            19.779               9.529              10.587
