AquaCrop 7.1 (August 2023) - Output created on (date) : 29-01-2026   at (time) : 01:20:22

   Run:   1
   Day Month  Year   DAP Stage   WC(2.30)   Rain     Irri   Surf   Infilt   RO    Drain       CR    Zgwt       Ex       E     E/Ex     Trx       Tr  Tr/Trx    ETx      ET  ET/ETx      GD       Z     StExp  StSto  StSen StSalt StWeed   CC      CCw     StTr  Kc(Tr)     Trx       Tr      TrW  Tr/Trx   WP    Biomass     HI    Y(dry)  Y(fresh)  Brelative    WPet      Bin     Bout  WC(2.30) Wr(2.30)     Z       Wr    Wr(SAT)    Wr(FC)   Wr(exp)   Wr(sto)   Wr(sen)   Wr(PWP)    SaltIn    SaltOut   SaltUp   Salt(2.30)  SaltZ     Z       ECe    ECsw   StSalt  Zgwt    ECgw       WC01       WC 2       WC 3       WC 4       WC 5       WC 6       WC 7       WC 8       WC 9       WC10       WC11       WC12      ECe01      ECe 2      ECe 3      ECe 4      ECe 5      ECe 6      ECe 7      ECe 8      ECe 9      ECe10      ECe11      ECe12     Rain       ETo      Tmin      Tavg      Tmax      CO2
                                      mm      mm       mm     mm     mm     mm       mm       mm      m        mm       mm     %        mm       mm    %        mm      mm       %  degC-day     m       %      %      %      %      %      %       %       %       -        mm       mm       mm    %     g/m2    ton/ha      %    ton/ha   ton/ha       %       kg/m3   ton/ha   ton/ha      mm       mm       m       mm        mm        mm        mm        mm        mm         mm    ton/ha    ton/ha    ton/ha    ton/ha    ton/ha     m      dS/m    dS/m      %     m      dS/m       0.05       0.18       0.33       0.48       0.63       0.80       1.00       1.20       1.43       1.68       1.93       2.18       0.05       0.18       0.33       0.48       0.63       0.80       1.00       1.20       1.43       1.68       1.93       2.18       mm        mm     degC      degC      degC       ppm
     1     7  2024     1     1     268.5     0.1      0.0    0.0    0.1    0.0      0.0      0.0   -9.90      0.2      0.2    100      0.0      0.0   100      0.2     0.2     100     20.4    0.30     -9     -9     -9      0     -9     0.0     0.0      0    -9.00      0.0      0.0      0.0   100     0.0     0.000    -9.9    0.000    0.000      -9        0.00    0.000    0.000     268.5    268.5    0.30    34.5     125.1      34.6      30.7      12.4      15.5       6.9    0.000     0.000     0.000     0.000     0.000    0.30     0.00    0.00      0   -9.90   -9.00       11.6       11.7       11.7       11.7       11.7       11.7       11.7       11.7       11.7       11.7       11.7       11.7        0.0        0.0        0.0        0.0        0.0        0.0        0.0        0.0        0.0        0.0        0.0        0.0      0.1       0.2      26.9      28.4      29.8    422.57
     2     7  2024     2     1     268.8     0.4      0.0    0.0    0.4    0.0      0.0      0.0   -9.90      0.1      0.1    100      0.0      0.0   100      0.1     0.1     100     18.9    0.30     -9     -9     -9      0     -9     0.0     0.0      0    -9.00      0.0      0.0      0.0   100     0.0     0.000    -9.9    0.000    0.000      -9        0.00    0.000    0.000     268.8    268.8    0.30    34.8     125.1      34.6      30.7      12.4      15.5       6.9    0.000     0.000     0.000     0.000     0.000    0.30     0.00    0.00      0   -9.90   -9.00       11.9       11.7       11.7       11.7       11.7       11.7       11.7       11.7       11.7       11.7       11.7       11.7        0.0        0.0        0.0        0.0        0.0        0.0        0.0        0.0        0.0        0.0        0.0        0.0      0.4       0.1      26.2      26.9      27.6    422.57
     3     7  2024     3     1     289.1    23.0      0.0    0.0   20.6    2.4      0.1      0.0   -9.90      0.2      0.2    100      0.0      0.0   100      0.2     0.2     100     19.8    0.30     -9     -9     -9      0     -9     0.0     0.0      0    -9.00      0.0      0.0      0.0   100     0.0     0.000    -9.9    0.000    0.000      -9        0.00    0.000    0.000     289.1    289.1    0.30    55.0     125.1      34.6      30.7      12.4      15.5       6.9    0.000     0.000     0.000     0.000     0.000    0.30     0.00    0.00      0   -9.90   -9.00       32.5       11.7       11.7       11.7       11.7       11.7       11.7       11.7       11.7       11.7       11.7       11.7        0.0        0.0        0.0        0.0        0.0        0.0        0.0        0.0        0.0        0.0        0.0        0.0     23.0       0.2      26.4      27.8      29.2    422.57
     4     7  2024     4     1     283.1     2.6      0.0    0.0    2.6    0.0      8.5      0.0   -9.90      0.2      0.2    100      0.0      0.0   100      0.2     0.2     100     20.2    0.30     -9     -9     -9      0     -9     0.0     0.0      0    -9.00      0.0      0.0      0.0   100     0.0     0.000    -9.9    0.000    0.000      -9        0.00    0.000    0.000     283.1    283.1    0.30    40.0     125.1      34.6      30.7      12.4      15.5       6.9    0.000     0.000     0.000     0.000     0.000    0.30     0.00    0.00      0   -9.90   -9.00       14.6       12.8       13.5       12.8       12.4       12.2       12.1       12.1       11.9       11.9       11.9       11.8        0.0        0.0        0.0        0.0        0.0        0.0        0.0        0.0        0.0        0.0        0.0        0.0      2.6       0.2      26.9      28.2      29.5    422.57
     5     7  2024     5     1     275.2     1.1      0.0    0.0    1.1    0.0      8.7      0.0   -9.90      0.2      0.2    100      0.0      0.0   100      0.2     0.2     100     19.4    0.32     -9     -9     -9      0     -9     0.0     0.0      0    -9.00      0.0      0.0      0.0   100     0.0     0.000    -9.9    0.000    0.000      -9        0.00    0.000    0.000     275.2    275.2    0.32    38.8     133.5      36.9      32.8      13.2      16.5       7.4    0.000     0.000     0.000     0.000     0.000    0.32     0.00    0.00      0   -9.90   -9.00       12.8       12.1       12.1       12.1       12.1       12.0       12.0       11.9       11.9       11.9       11.8       11.8        0.0        0.0        0.0        0.0        0.0        0.0        0.0        0.0        0.0        0.0        0.0        0.0      1.1       0.1      26.4      27.4      28.5    422.57
     6     7  2024     6     1     270.9     0.3      0.0    0.0    0.3    0.0      4.4      0.0   -9.90      0.2      0.2    100      0.0      0.0   100      0.2     0.2     100     20.1    0.36     -9     -9     -9      0     -9     0.0     0.0      0    -9.00      0.0      0.0      0.0   100     0.0     0.000    -9.9    0.000    0.000      -9        0.00    0.000    0.000     270.9    270.9    0.36    42.1     150.6      41.6      37.0      15.0      18.7       8.4    0.000     0.000     0.000     0.000     0.000    0.36     0.00    0.00      0   -9.90   -9.00       11.8       11.8       11.9       11.8       11.8       11.8       11.8       11.8       11.8       11.8       11.8       11.8        0.0        0.0        0.0        0.0        0.0        0.0        0.0        0.0        0.0        0.0        0.0        0.0      0.3       0.2      26.2      28.4      30.6    422.57
     7     7  2024     7     2     276.2     7.2      0.0    0.0    7.1    0.0      1.6      0.0   -9.90      0.2      0.2    100      0.0      0.0   100      0.2     0.2     100     18.7    0.40     -9      0      0      0      0     0.4     0.4      0     0.01      0.0      0.0      0.0   100    35.0     0.003    -9.9    0.000    0.000     100        0.00    0.000    0.000     276.2    276.2    0.40    53.0     166.4      46.0      34.2      16.6      16.6       9.3    0.000     0.000     0.000     0.000     0.000    0.40     0.00    0.00      0   -9.90   -9.00       18.8       11.7       11.7       11.7       11.7       11.7       11.7       11.7       11.7       11.7       11.7       11.7        0.0        0.0        0.0        0.0        0.0        0.0        0.0        0.0        0.0        0.0        0.0        0.0      7.2       0.2      25.2      26.7      28.2    422.57
     8     7  2024     8     2     286.2    13.6      0.0    0.0   13.0    0.6      2.8      0.0   -9.90      0.1      0.1    100      0.0      0.0   100      0.1     0.1     100     17.9    0.43     -9      0      0      0      0     0.5     0.5      0     0.01      0.0      0.0      0.0   100    35.0     0.006    -9.9    0.000    0.000     100        0.00    0.000    0.000     286.2    286.2    0.43    65.6     181.2      50.1      37.2      18.1      18.1      10.2    0.000     0.000     0.000     0.000     0.000    0.43     0.00    0.00      0   -9.90   -9.00       25.6       12.2       12.3       12.0       11.9       11.9       11.8       11.8       11.8       11.8       11.8       11.7        0.0        0.0        0.0        0.0        0.0        0.0        0.0        0.0        0.0        0.0        0.0        0.0     13.6       0.1      25.1      25.9      26.7    422.57
     9     7  2024     9     2     313.9    47.2      0.0    0.0   35.6   11.6      7.8      0.0   -9.90      0.2      0.2    100      0.0      0.0   100      0.2     0.2     100     19.4    0.47      0      0      0      0      0     0.6     0.6      0     0.01      0.0      0.0      0.0   100    35.0     0.010    -9.9    0.000    0.000     100        0.00    0.000    0.000     313.9    313.9    0.47    94.0     195.4      54.0      40.1      19.5      19.5      11.0    0.000     0.000     0.000     0.000     0.000    0.47     0.00    0.00      0   -9.90   -9.00       42.1       16.9       13.0       12.5       12.3       12.1       12.0       12.0       11.9       11.9       11.9       11.8        0.0        0.0        0.0        0.0        0.0        0.0        0.0        0.0        0.0        0.0        0.0        0.0     47.2       0.1      26.5      27.4      28.4    422.57
    10     7  2024    10     2     289.9     0.1      0.0    0.0    0.1    0.0     23.8      0.0   -9.90      0.2      0.2     97      0.0      0.0   100      0.2     0.2      97     19.4    0.50      0      0      0      0      0     0.7     0.7      0     0.01      0.0      0.0      0.0   100    35.0     0.014    -9.9    0.000    0.000     100        0.00    0.000    0.000     289.9    289.9    0.50    65.1     209.1      57.8      43.0      21.0      21.0      11.9    0.000     0.000     0.000     0.000     0.000    0.50     0.00    0.00      0   -9.90   -9.00       11.5       12.4       14.7       13.8       13.3       12.9       12.6       12.4       12.3       12.2       12.1       12.1        0.0        0.0        0.0        0.0        0.0        0.0        0.0        0.0        0.0        0.0        0.0        0.0      0.1       0.2      25.5      27.4      29.2    422.57
    11     7  2024    11     2     280.8     5.6      0.0    0.0    5.6    0.0     14.5      0.0   -9.90      0.2      0.2    100      0.0      0.0   100      0.2     0.2     100     19.3    0.53      0      0      0      0      0     0.8     0.8      0     0.01      0.0      0.0      0.0   100    35.0     0.019    -9.9    0.000    0.000     100        0.00    0.000    0.000     280.8    280.8    0.53    68.4     222.3      61.4      45.8      22.3      22.3      12.6    0.000     0.000     0.000     0.000     0.000    0.53     0.00    0.00      0   -9.90   -9.00       17.0       11.8       12.4       12.2       12.1       12.1       12.0       12.0       12.0       12.0       11.9       11.9        0.0        0.0        0.0        0.0        0.0        0.0        0.0        0.0        0.0        0.0        0.0        0.0      5.6       0.2      25.5      27.3      29.0    422.57
    12     7  2024    12     2     276.3     3.0      0.0    0.0    3.0    0.0      7.2      0.0   -9.90      0.2      0.2    100      0.0      0.0   100      0.2     0.2     100     19.5    0.56      0      0      0      0      0     1.0     1.0      0     0.02      0.0      0.0      0.0   100    35.0     0.026    -9.9    0.000    0.000     100        0.00    0.000    0.000     276.3    276.3    0.56    70.1     235.2      65.0      48.3      23.6      23.6      13.4    0.000     0.000     0.000     0.000     0.000    0.56     0.00    0.00      0   -9.90   -9.00       15.0       12.1       12.2       12.0       12.0       11.9       11.9       11.9       11.8       11.8       11.8       11.8        0.0        0.0        0.0        0.0        0.0        0.0        0.0        0.0        0.0        0.0        0.0        0.0      3.0       0.1      26.5      27.5      28.6    422.57
    13     7  2024    13     2     276.0     4.0      0.0    0.0    4.0    0.0      4.2      0.0   -9.90      0.2      0.2    100      0.0      0.0   100      0.2     0.2     100     19.3    0.59      0      0      0      0      0     1.2     1.2      0     0.02      0.0      0.0      0.0   100    35.0     0.033    -9.9    0.000    0.000     100        0.00    0.000    0.000     276.0    276.0    0.59    74.1     247.7      68.4      50.9      24.9      24.9      14.1    0.000     0.000     0.000     0.000     0.000    0.59     0.00    0.00      0   -9.90   -9.00       16.0       12.0       12.1       11.9       11.9       11.9       11.8       11.8       11.8       11.8       11.8       11.8        0.0        0.0        0.0        0.0        0.0        0.0        0.0        0.0        0.0        0.0        0.0        0.0      4.0       0.1      26.2      27.3      28.3    422.57
    14     7  2024    14     2     282.0    10.0      0.0    0.0    9.8    0.2      3.5      0.0   -9.90      0.2      0.2    100      0.0      0.0   100      0.2     0.2     100     19.2    0.62      0      0      0      0      0     1.4     1.4      0     0.02      0.0      0.0      0.0   100    35.0     0.041    -9.9    0.000    0.000     100        0.00    0.000    0.000     282.0    282.0    0.62    83.6     259.9      71.8      53.5      26.2      26.2      14.8    0.000     0.000     0.000     0.000     0.000    0.62     0.00    0.00      0   -9.90   -9.00       22.0       12.1       12.1       12.0       11.9       11.9       11.8       11.8       11.8       11.8       11.8       11.8        0.0        0.0        0.0        0.0        0.0        0.0        0.0        0.0        0.0        0.0        0.0        0.0     10.0       0.2      25.4      27.2      28.9    422.57
    15     7  2024    15     2     282.9     7.0      0.0    0.0    7.0    0.0      5.9      0.0   -9.90      0.2      0.2    100      0.0      0.0   100      0.2     0.2     100     19.5    0.65      0      0      0      0      0     1.6     1.6      0     0.03      0.0      0.0      0.0   100    35.0     0.051    -9.9    0.000    0.000     100        0.00    0.000    0.000     282.9    282.9    0.65    86.6     271.9      75.1      55.9      27.4      27.4      15.6    0.000     0.000     0.000     0.000     0.000    0.65     0.00    0.00      0   -9.90   -9.00       19.5       12.5       12.7       12.3       12.1       12.0       11.9       11.9       11.8       11.8       11.8       11.8        0.0        0.0        0.0        0.0        0.0        0.0        0.0        0.0        0.0        0.0        0.0        0.0      7.0       0.2      26.2      27.5      28.8    422.57
    16     7  2024    16     2     280.7     5.1      0.0    0.0    5.1    0.0      7.1      0.0   -9.90      0.2      0.2    100      0.0      0.0   100      0.2     0.2     100     19.8    0.67      0      0      0      0      0     1.9     1.9      0     0.03      0.0      0.0      0.0   100    35.0     0.063    -9.9    0.000    0.000     100        0.00    0.000    0.000     280.7    280.7    0.67    87.4     283.6      78.3      58.3      28.5      28.5      16.2    0.000     0.000     0.000     0.000     0.000    0.67     0.00    0.00      0   -9.90   -9.00       17.4       12.4       12.5       12.2       12.1       12.0       11.9       11.9       11.9       11.8       11.8       11.8        0.0        0.0        0.0        0.0        0.0        0.0        0.0        0.0        0.0        0.0        0.0        0.0      5.1       0.2      26.6      27.8      28.9    422.57
    17     7  2024    17     2     283.0     8.8      0.0    0.0    8.7    0.1      6.2      0.0   -9.90      0.2      0.2    100      0.0      0.0   100      0.2     0.2     100     19.4    0.70      0      0      0      0      0     2.3     2.3      0     0.04      0.0      0.0      0.0   100    35.0     0.077    -9.9    0.000    0.000     100        0.00    0.000    0.000     283.0    283.0    0.70    93.5     295.2      81.5      60.7      29.7      29.7      16.9    0.000     0.000     0.000     0.000     0.000    0.70     0.00    0.00      0   -9.90   -9.00       21.1       12.2       12.3       12.1       12.0       12.0       11.9       11.9       11.8       11.8       11.8       11.8        0.0        0.0        0.0        0.0        0.0        0.0        0.0        0.0        0.0        0.0        0.0        0.0      8.8       0.2      26.2      27.4      28.7    422.57
    18     7  2024    18     2     289.4    13.9      0.0    0.0   13.3    0.6      6.7      0.0   -9.90      0.1      0.1    100      0.0      0.0   100      0.1     0.1     100     18.2    0.73      0      0      0      0      0     2.7     2.7      0     0.05      0.0      0.0      0.0   100    35.0     0.094    -9.9    0.000    0.000     100        0.00    0.000    0.000     289.4    289.4    0.73   102.7     306.5      84.6      63.0      30.8      30.8      17.6    0.000     0.000     0.000     0.000     0.000    0.73     0.00    0.00      0   -9.90   -9.00       26.1       12.4       12.6       12.3       12.1       12.0       11.9       11.9       11.9       11.8       11.8       11.8        0.0        0.0        0.0        0.0        0.0        0.0        0.0        0.0        0.0        0.0        0.0        0.0     13.9       0.1      25.4      26.2      27.0    422.57
    19     7  2024    19     2     297.8    20.2      0.0    0.0   18.5    1.8      9.8      0.0   -9.90      0.2      0.2    100      0.0      0.0   100      0.2     0.2     100     19.3    0.75      0      0      0      0      0     3.2     3.2      0     0.06      0.0      0.0      0.0   100    35.0     0.113    -9.9    0.000    0.000     100        0.00    0.000    0.000     297.8    297.8    0.75   113.0     317.7      87.7      65.5      32.1      32.1      18.3    0.000     0.000     0.000     0.000     0.000    0.75     0.00    0.00      0   -9.90   -9.00       31.4       12.7       13.1       12.6       12.3       12.2       12.1       12.0       11.9       11.9       11.9       11.8        0.0        0.0        0.0        0.0        0.0        0.0        0.0        0.0        0.0        0.0        0.0        0.0     20.2       0.2      25.2      27.3      29.3    422.57
    20     7  2024    20     2     285.3     2.5      0.0    0.0    2.5    0.0     14.8      0.0   -9.90      0.2      0.2    100      0.0      0.0   100      0.2     0.2     100     20.4    0.78      0      0      0      0      0     3.7     3.7      0     0.06      0.0      0.0      0.0   100    35.0     0.136    -9.9    0.000    0.000     100        0.00    0.000    0.000     285.3    285.3    0.78   101.6     328.7      90.8      67.7      33.2      33.2      18.9    0.000     0.000     0.000     0.000     0.000    0.78     0.00    0.00      0   -9.90   -9.00       14.4       12.8       13.5       12.9       12.6       12.4       12.2       12.2       12.1       12.0       12.0       11.9        0.0        0.0        0.0        0.0        0.0        0.0        0.0        0.0        0.0        0.0        0.0        0.0      2.5       0.2      27.0      28.4      29.8    422.57
    21     7  2024    21     2     275.2     0.8      0.0    0.0    0.8    0.0     10.6      0.0   -9.90      0.2      0.2    100      0.0      0.0   100      0.2     0.2     100     20.5    0.81      0      0      0      0      0     4.4     4.4      0     0.08      0.0      0.0      0.0   100    35.0     0.163    -9.9    0.000    0.000     100        0.00    0.000    0.000     275.2    275.2    0.81    97.2     339.6      93.8      69.9      34.3      34.3      19.5    0.000     0.000     0.000     0.000     0.000    0.81     0.00    0.00      0   -9.90   -9.00       12.4       12.1       12.1       12.1       12.1       12.0       12.0       11.9       11.9       11.9       11.9       11.9        0.0        0.0        0.0        0.0        0.0        0.0        0.0        0.0        0.0        0.0        0.0        0.0      0.8       0.2      27.0      28.5      30.0    422.57
    22     7  2024    22     2     270.5     0.1      0.0    0.0    0.1    0.0      4.6      0.0   -9.90      0.2      0.2    100      0.0      0.0   100      0.2     0.2     100     20.6    0.83      0      0      0      0      0     5.2     5.2      0     0.09      0.0      0.0      0.0   100    35.0     0.194    -9.9    0.000    0.000     100        0.00    0.000    0.000     270.5    270.5    0.83    97.5     350.3      96.7      72.1      35.4      35.4      20.2    0.000     0.000     0.000     0.000     0.000    0.83     0.00    0.00      0   -9.90   -9.00       11.7       11.8       11.8       11.8       11.8       11.8       11.8       11.8       11.8       11.8       11.8       11.8        0.0        0.0        0.0        0.0        0.0        0.0        0.0        0.0        0.0        0.0        0.0        0.0      0.1       0.2      27.3      28.6      29.8    422.57
    23     7  2024    23     2     271.9     3.0      0.0    0.0    3.0    0.0      1.5      0.0   -9.90      0.1      0.1    100      0.0      0.0   100      0.2     0.2     100     19.3    0.86      0      0      0      0      0     6.1     6.1      0     0.10      0.0      0.0      0.0   100    35.0     0.231    -9.9    0.000    0.000     100        0.00    0.000    0.000     271.9    271.9    0.86   102.6     360.9      99.7      74.2      36.4      36.4      20.8    0.000     0.000     0.000     0.000     0.000    0.86     0.00    0.00      0   -9.90   -9.00       14.5       11.7       11.7       11.7       11.7       11.7       11.7       11.7       11.7       11.7       11.7       11.7        0.0        0.0        0.0        0.0        0.0        0.0        0.0        0.0        0.0        0.0        0.0        0.0      3.0       0.1      26.3      27.3      28.3    422.57
    24     7  2024    24     2     277.8     7.5      0.0    0.0    7.4    0.0      1.3      0.0   -9.90      0.1      0.1    100      0.0      0.0   100      0.2     0.2     100     18.8    0.88      0      0      0      0      0     7.2     7.2      0     0.12      0.0      0.0      0.0   100    35.0     0.274    -9.9    0.000    0.000     100        0.00    0.000    0.000     277.8    277.8    0.88   111.4     371.4     102.5      76.3      37.4      37.4      21.4    0.000     0.000     0.000     0.000     0.000    0.88     0.00    0.00      0   -9.90   -9.00       19.5       11.9       12.0       11.8       11.8       11.8       11.7       11.7       11.7       11.7       11.7       11.7        0.0        0.0        0.0        0.0        0.0        0.0        0.0        0.0        0.0        0.0        0.0        0.0      7.5       0.1      25.8      26.8      27.7    422.57
    25     7  2024    25     2     306.0    40.6      0.0    0.0   32.0    8.6      3.7      0.0   -9.90      0.1      0.1    100      0.0      0.0   100      0.1     0.1     100     18.2    0.91      0      0      0      0      0     8.5     8.5      0     0.14      0.0      0.0      0.0   100    35.0     0.324    -9.9    0.000    0.000     100        0.00    0.000    0.000     306.0    306.0    0.91   141.4     381.7     105.4      78.4      38.4      38.4      22.0    0.000     0.000     0.000     0.000     0.000    0.91     0.00    0.00      0   -9.90   -9.00       42.2       13.9       12.4       12.1       12.1       11.9       11.9       11.8       11.8       11.8       11.8       11.8        0.0        0.0        0.0        0.0        0.0        0.0        0.0        0.0        0.0        0.0        0.0        0.0     40.6       0.1      25.6      26.2      26.8    422.57
    26     7  2024    26     2     331.3    65.0      0.0    0.0   44.0   21.1     18.5      0.0   -9.90      0.1      0.1    100      0.0      0.0   100      0.2     0.2     100     19.0    0.93      0      0      0      0      0    10.0    10.0      0     0.17      0.0      0.0      0.0   100    35.0     0.383    -9.9    0.000    0.000     100        0.00    0.000    0.000     331.3    331.3    0.93   164.6     392.0     108.2      80.7      39.6      39.6      22.6    0.000     0.000     0.000     0.000     0.000    0.93     0.00    0.00      0   -9.90   -9.00       42.1       22.1       14.4       13.5       13.0       12.7       12.5       12.3       12.2       12.1       12.0       12.0        0.0        0.0        0.0        0.0        0.0        0.0        0.0        0.0        0.0        0.0        0.0        0.0     65.0       0.2      25.8      27.0      28.2    422.57
    27     7  2024    27     2     303.2     8.5      0.0    0.0    8.4    0.1     36.2      0.0   -9.90      0.2      0.2    100      0.0      0.0   100      0.2     0.2     100     20.3    0.95      0      0      0      0      0    11.8    11.8      0     0.20      0.0      0.0      0.0   100    35.0     0.452    -9.9    0.000    0.000     100        0.00    0.000    0.000     303.2    303.2    0.95   134.8     402.2     111.0      82.9      40.7      40.7      23.2    0.000     0.000     0.000     0.000     0.000    0.95     0.00    0.00      0   -9.90   -9.00       20.1       11.7       14.9       14.2       13.7       13.3       13.0       12.7       12.6       12.4       12.3       12.2        0.0        0.0        0.0        0.0        0.0        0.0        0.0        0.0        0.0        0.0        0.0        0.0      8.5       0.2      26.5      28.3      30.1    422.57
    28     7  2024    28     2     280.9     0.8      0.0    0.0    0.8    0.0     23.0      0.0   -9.90      0.1      0.1    100      0.0      0.0   100      0.2     0.2     100     20.4    0.98      0      0      0      0      0    14.0    14.0      0     0.23      0.0      0.0      0.0   100    35.0     0.532    -9.9    0.000    0.000     100        0.00    0.000    0.000     280.9    280.9    0.98   120.4     412.2     113.8      84.8      41.6      41.6      23.8    0.000     0.000     0.000     0.000     0.000    0.98     0.00    0.00      0   -9.90   -9.00       12.4       12.3       12.5       12.4       12.4       12.3       12.3       12.2       12.1       12.1       12.1       12.0        0.0        0.0        0.0        0.0        0.0        0.0        0.0        0.0        0.0        0.0        0.0        0.0      0.8       0.2      27.2      28.4      29.6    422.57
    29     7  2024    29     2     271.9     0.1      0.0    0.0    0.1    0.0      8.9      0.0   -9.90      0.1      0.1    100      0.0      0.0   100      0.2     0.2     100     20.1    1.00      0      0      0      0      0    16.5    16.5      0     0.27      0.0      0.0      0.0   100    35.0     0.626    -9.9    0.000    0.000     100        0.00    0.000    0.000     271.9    271.9    1.00   118.0     422.2     116.6      86.9      42.7      42.7      24.4    0.000     0.000     0.000     0.000     0.000    1.00     0.00    0.00      0   -9.90   -9.00       11.7       11.8       11.9       11.9       11.9       11.9       11.9       11.9       11.8       11.8       11.8       11.8        0.0        0.0        0.0        0.0        0.0        0.0        0.0        0.0        0.0        0.0        0.0        0.0      0.1       0.2      26.9      28.1      29.3    422.57
    30     7  2024    30     2     270.5     1.3      0.0    0.0    1.3    0.0      2.5      0.0   -9.90      0.1      0.1    100      0.1      0.1   100      0.2     0.2     100     19.9    1.02      0      0      0      0      0    19.4    19.4      0     0.31      0.1      0.1      0.1   100    35.0     0.734    -9.9    0.000    0.000     100        0.00    0.000    0.000     270.5    270.5    1.02   120.8     432.0     119.3      88.9      43.7      43.7      25.0    0.000     0.000     0.000     0.000     0.000    1.02     0.00    0.00      0   -9.90   -9.00       12.9       11.7       11.7       11.7       11.7       11.7       11.7       11.7       11.7       11.7       11.7       11.7        0.0        0.0        0.0        0.0        0.0        0.0        0.0        0.0        0.0        0.0        0.0        0.0      1.3       0.2      26.7      27.9      29.2    422.57
    31     7  2024    31     2     271.4     2.0      0.0    0.0    2.0    0.0      1.0      0.0   -9.90      0.1      0.1    100      0.1      0.1   100      0.2     0.2     100     19.8    1.05      0      0      0      0      0    22.9    22.9      0     0.36      0.1      0.1      0.1   100    35.0     0.859    -9.9    0.000    0.000     100        0.00    0.000    0.000     271.4    271.4    1.05   124.6     441.8     122.0      90.9      44.7      44.7      25.6    0.000     0.000     0.000     0.000     0.000    1.05     0.00    0.00      0   -9.90   -9.00       13.7       11.8       11.8       11.8       11.7       11.7       11.7       11.7       11.7       11.7       11.7       11.7        0.0        0.0        0.0        0.0        0.0        0.0        0.0        0.0        0.0        0.0        0.0        0.0      2.0       0.2      26.6      27.8      29.0    422.57
     1     8  2024    32     2     279.1     9.1      0.0    0.0    9.0    0.1      1.2      0.0   -9.90      0.1      0.1    100      0.1      0.1   100      0.2     0.2     100     20.1    1.07      0      0      0      0      0    27.0    27.0      0     0.41      0.1      0.1      0.1   100    35.0     1.003    -9.9    0.000    0.000     100        0.00    0.000    0.000     279.1    279.1    1.07   134.8     451.5     124.7      92.9      45.7      45.7      26.1    0.000     0.000     0.000     0.000     0.000    1.07     0.00    0.00      0   -9.90   -9.00       21.0       11.9       11.9       11.8       11.8       11.8       11.7       11.7       11.7       11.7       11.7       11.7        0.0        0.0        0.0        0.0        0.0        0.0        0.0        0.0        0.0        0.0        0.0        0.0      9.1       0.2      26.9      28.1      29.2    422.57
     2     8  2024    33     2     275.2     0.5      0.0    0.0    0.5    0.0      4.2      0.0   -9.90      0.1      0.1    100      0.1      0.1   100      0.2     0.2     100     19.9    1.09      0      0      0      0      0    31.8    31.8      0     0.47      0.1      0.1      0.1   100    35.0     1.168    -9.9    0.000    0.000     100        0.00    0.000    0.000     275.2    275.2    1.09   132.7     461.2     127.3      94.9      46.7      46.7      26.7    0.000     0.000     0.000     0.000     0.000    1.09     0.00    0.00      0   -9.90   -9.00       12.5       12.4       12.6       12.2       12.1       11.9       11.9       11.9       11.8       11.8       11.8       11.8        0.0        0.0        0.0        0.0        0.0        0.0        0.0        0.0        0.0        0.0        0.0        0.0      0.5       0.2      26.5      27.9      29.3    422.57
     3     8  2024    34     2     271.0     0.1      0.0    0.0    0.1    0.0      4.1      0.0   -9.90      0.1      0.1    100      0.1      0.1   100      0.2     0.2     100     19.9    1.12      0      0      0      0      0    37.5    37.5      0     0.54      0.1      0.1      0.1   100    35.0     1.357    -9.9    0.000    0.000     100        0.00    0.000    0.000     271.0    271.0    1.12   131.4     470.7     130.0      97.0      47.7      47.7      27.3    0.000     0.000     0.000     0.000     0.000    1.12     0.00    0.00      0   -9.90   -9.00       11.6       11.8       11.9       11.9       11.9       11.8       11.8       11.8       11.8       11.8       11.8       11.8        0.0        0.0        0.0        0.0        0.0        0.0        0.0        0.0        0.0        0.0        0.0        0.0      0.1       0.2      26.0      27.9      29.8    422.57
     4     8  2024    35     2     286.7    19.2      0.0    0.0   17.7    1.5      1.8      0.0   -9.90      0.1      0.1    100      0.1      0.1   100      0.1     0.1     100     18.2    1.14      0      0      0      0      0    44.3    44.3      0     0.61      0.1      0.1      0.1   100    35.0     1.571    -9.9    0.000    0.000     100        0.00    0.000    0.000     286.7    286.7    1.14   150.4     480.2     132.6      98.7      48.5      48.5      27.8    0.000     0.000     0.000     0.000     0.000    1.14     0.00    0.00      0   -9.90   -9.00       29.4       11.7       11.7       11.7       11.7       11.7       11.7       11.7       11.7       11.7       11.7       11.7        0.0        0.0        0.0        0.0        0.0        0.0        0.0        0.0        0.0        0.0        0.0        0.0     19.2       0.1      25.4      26.2      27.1    422.57
     5     8  2024    36     2     308.9    36.7      0.0    0.0   29.7    7.0      7.5      0.0   -9.90      0.0      0.0    100      0.1      0.1   100      0.1     0.1     100     18.0    1.16      0      0      0      0      0    51.8    51.8      0     0.69      0.1      0.1      0.1   100    35.0     1.812    -9.9    0.000    0.000     100        0.00    0.000    0.000     308.9    308.9    1.16   173.4     489.6     135.2     100.6      49.4      49.4      28.4    0.000     0.000     0.000     0.000     0.000    1.16     0.00    0.00      0   -9.90   -9.00       41.9       12.8       13.3       12.6       12.6       12.1       12.1       12.0       11.9       11.9       11.9       11.8        0.0        0.0        0.0        0.0        0.0        0.0        0.0        0.0        0.0        0.0        0.0        0.0     36.7       0.1      25.3      26.0      26.7    422.57
     6     8  2024    37     2     319.8    41.5      0.0    0.0   32.6    9.0     21.4      0.0   -9.90      0.1      0.1    100      0.1      0.1   100      0.2     0.2     100     19.4    1.18      0      0      0      0      0    58.4    58.4      0     0.75      0.1      0.1      0.1   100    35.0     2.075    -9.9    0.000    0.000     100        0.00    0.000    0.000     319.8    319.8    1.18   183.6     499.0     137.8     102.8      50.5      50.5      28.9    0.000     0.000     0.000     0.000     0.000    1.18     0.00    0.00      0   -9.90   -9.00       42.1       13.7       14.3       13.5       13.0       12.8       12.5       12.4       12.2       12.2       12.1       12.1        0.0        0.0        0.0        0.0        0.0        0.0        0.0        0.0        0.0        0.0        0.0        0.0     41.5       0.2      26.0      27.4      28.9    422.57
     7     8  2024    38     2     291.7     1.1      0.0    0.0    1.1    0.0     29.0      0.0   -9.90      0.0      0.0    100      0.1      0.1   100      0.2     0.2     100     19.3    1.20      0      0      0      0      0    64.0    64.0      0     0.80      0.1      0.1      0.1   100    35.0     2.354    -9.9    0.000    0.000     100        0.00    0.000    0.000     291.7    291.7    1.20   157.3     508.3     140.3     104.6      51.4      51.4      29.5    0.000     0.000     0.000     0.000     0.000    1.20     0.00    0.00      0   -9.90   -9.00       12.7       12.6       14.4       13.7       13.2       12.9       12.7       12.5       12.4       12.3       12.2       12.1        0.0        0.0        0.0        0.0        0.0        0.0        0.0        0.0        0.0        0.0        0.0        0.0      1.1       0.1      26.2      27.3      28.4    422.57
     8     8  2024    39     2     283.6     7.8      0.0    0.0    7.7    0.0     15.7      0.0   -9.90      0.0      0.0    100      0.2      0.2   100      0.2     0.2     100     19.5    1.23      0      0      0      0      0    68.8    68.8      0     0.84      0.2      0.2      0.2   100    35.0     2.647    -9.9    0.000    0.000     100        0.00    0.000    0.000     283.6    283.6    1.23   155.0     517.5     142.9     106.6      52.4      52.4      30.0    0.000     0.000     0.000     0.000     0.000    1.23     0.00    0.00      0   -9.90   -9.00       19.5       11.8       12.3       12.2       12.1       12.1       12.1       12.0       12.0       12.0       12.0       11.9        0.0        0.0        0.0        0.0        0.0        0.0        0.0        0.0        0.0        0.0        0.0        0.0      7.8       0.2      26.0      27.5      29.0    422.57
     9     8  2024    40     2     280.9     5.8      0.0    0.0    5.8    0.0      8.3      0.0   -9.90      0.0      0.0    100      0.2      0.2   100      0.2     0.2     100     20.0    1.25      0      0      0      0      0    72.8    72.8      0     0.87      0.2      0.2      0.2   100    35.0     2.950    -9.9    0.000    0.000     100        0.00    0.000    0.000     280.9    280.9    1.25   156.2     526.7     145.4     108.5      53.4      53.4      30.6    0.000     0.000     0.000     0.000     0.000    1.25     0.00    0.00      0   -9.90   -9.00       18.2       12.3       12.4       12.2       12.0       12.0       11.9       11.9       11.9       11.8       11.8       11.8        0.0        0.0        0.0        0.0        0.0        0.0        0.0        0.0        0.0        0.0        0.0        0.0      5.8       0.2      26.6      28.0      29.5    422.57
    10     8  2024    41     2     277.9     3.5      0.0    0.0    3.5    0.0      6.4      0.0   -9.90      0.0      0.0    100      0.1      0.1   100      0.2     0.2     100     19.2    1.27      0      0      0      0      0    76.2    76.2      0     0.89      0.1      0.1      0.1   100    35.0     3.263    -9.9    0.000    0.000     100        0.00    0.000    0.000     277.9    277.9    1.27   155.9     535.8     147.9     110.2      54.2      54.2      31.1    0.000     0.000     0.000     0.000     0.000    1.27     0.00    0.00      0   -9.90   -9.00       15.6       12.3       12.4       12.1       12.0       12.0       11.9       11.9       11.8       11.8       11.8       11.8        0.0        0.0        0.0        0.0        0.0        0.0        0.0        0.0        0.0        0.0        0.0        0.0      3.5       0.1      26.1      27.2      28.2    422.57
    11     8  2024    42     2     286.2    14.1      0.0    0.0   13.4    0.6      4.9      0.0   -9.90      0.0      0.0    100      0.2      0.2   100      0.2     0.2     100     19.1    1.29      0      0      0      0      0    79.1    79.1      0     0.91      0.2      0.2      0.2   100    35.0     3.584    -9.9    0.000    0.000     100        0.00    0.000    0.000     286.2    286.2    1.29   167.1     544.9     150.4     112.2      55.2      55.2      31.6    0.000     0.000     0.000     0.000     0.000    1.29     0.00    0.00      0   -9.90   -9.00       25.7       12.1       12.1       12.0       11.9       11.9       11.9       11.8       11.8       11.8       11.8       11.8        0.0        0.0        0.0        0.0        0.0        0.0        0.0        0.0        0.0        0.0        0.0        0.0     14.1       0.2      25.6      27.1      28.6    422.57
    12     8  2024    43     2     323.3    67.5      0.0    0.0   45.0   22.5      7.7      0.0   -9.90      0.0      0.0    100      0.2      0.2   100      0.2     0.2     100     19.8    1.31      0      0      0      0      0    81.6    81.6      0     0.93      0.2      0.2      0.2   100    35.0     3.910    -9.9    0.000    0.000     100        0.00    0.000    0.000     323.3    323.3    1.31   206.0     553.9     152.9     114.1      56.2      56.2      32.2    0.000     0.000     0.000     0.000     0.000    1.31     0.00    0.00      0   -9.90   -9.00       42.1       23.5       13.0       12.5       12.2       12.1       12.0       11.9       11.9       11.9       11.8       11.8        0.0        0.0        0.0        0.0        0.0        0.0        0.0        0.0        0.0        0.0        0.0        0.0     67.5       0.2      26.1      27.8      29.5    422.57
    13     8  2024    44     2     294.0     0.7      0.0    0.0    0.7    0.0     29.8      0.0   -9.90      0.0      0.0    100      0.2      0.2   100      0.2     0.2     100     20.5    1.33      0      0      0      0      0    83.7    83.7      0     0.95      0.2      0.2      0.2   100    35.0     4.242    -9.9    0.000    0.000     100        0.00    0.000    0.000     294.0    294.0    1.33   175.1     562.8     155.4     115.8      57.0      57.0      32.7    0.000     0.000     0.000     0.000     0.000    1.33     0.00    0.00      0   -9.90   -9.00       12.3       11.7       15.0       14.2       13.6       13.2       12.9       12.6       12.5       12.3       12.2       12.2        0.0        0.0        0.0        0.0        0.0        0.0        0.0        0.0        0.0        0.0        0.0        0.0      0.7       0.2      27.3      28.5      29.6    422.57
    14     8  2024    45     2     277.8     1.3      0.0    0.0    1.3    0.0     17.3      0.0   -9.90      0.0      0.0    100      0.2      0.2   100      0.2     0.2     100     20.4    1.35      0      0      0      0      0    85.4    85.4      0     0.96      0.2      0.2      0.2   100    35.0     4.578    -9.9    0.000    0.000     100        0.00    0.000    0.000     277.8    277.8    1.35   164.3     571.7     157.8     117.7      57.9      57.9      33.2    0.000     0.000     0.000     0.000     0.000    1.35     0.00    0.00      0   -9.90   -9.00       12.9       11.8       12.4       12.3       12.1       12.1       12.1       12.1       12.0       12.0       12.0       12.0        0.0        0.0        0.0        0.0        0.0        0.0        0.0        0.0        0.0        0.0        0.0        0.0      1.3       0.2      27.2      28.4      29.5    422.57
    15     8  2024    46     2     274.0     2.8      0.0    0.0    2.8    0.0      6.5      0.0   -9.90      0.0      0.0    100      0.1      0.1   100      0.1     0.1     100     19.4    1.37      0      0      0      0      0    86.9    86.9      0     0.97      0.1      0.1      0.1   100    35.0     4.917    -9.9    0.000    0.000     100        0.00    0.000    0.000     274.0    274.0    1.37   164.8     580.6     160.3     119.4      58.7      58.7      33.8    0.000     0.000     0.000     0.000     0.000    1.37     0.00    0.00      0   -9.90   -9.00       14.6       11.8       11.9       11.8       11.8       11.8       11.8       11.8       11.8       11.8       11.8       11.8        0.0        0.0        0.0        0.0        0.0        0.0        0.0        0.0        0.0        0.0        0.0        0.0      2.8       0.1      26.4      27.4      28.4    422.57
    16     8  2024    47     2     291.2    22.6      0.0    0.0   20.2    2.3      2.9      0.0   -9.90      0.0      0.0    100      0.2      0.2   100      0.2     0.2     100     19.3    1.40      0      0      0      0      0    88.2    88.2      0     0.98      0.2      0.2      0.2   100    35.0     5.260    -9.9    0.000    0.000     100        0.00    0.000    0.000     291.2    291.2    1.40   184.9     589.4     162.7     121.3      59.7      59.7      34.3    0.000     0.000     0.000     0.000     0.000    1.40     0.00    0.00      0   -9.90   -9.00       32.5       11.9       12.0       11.9       11.8       11.8       11.8       11.8       11.8       11.8       11.7       11.7        0.0        0.0        0.0        0.0        0.0        0.0        0.0        0.0        0.0        0.0        0.0        0.0     22.6       0.2      26.1      27.3      28.4    422.57
    17     8  2024    48     2     290.8     9.6      0.0    0.0    9.4    0.2      9.7      0.0   -9.90      0.0      0.0    100      0.1      0.1   100      0.1     0.1     100     19.0    1.42      0      0      0      0      0    89.3    89.3      0     0.98      0.1      0.1      0.1   100    35.0     5.605    -9.9    0.000    0.000     100        0.00    0.000    0.000     290.8    290.8    1.42   185.7     598.2     165.1     122.8      60.4      60.4      34.8    0.000     0.000     0.000     0.000     0.000    1.42     0.00    0.00      0   -9.90   -9.00       22.2       12.8       13.6       12.8       12.5       12.3       12.1       12.0       12.0       11.9       11.9       11.9        0.0        0.0        0.0        0.0        0.0        0.0        0.0        0.0        0.0        0.0        0.0        0.0      9.6       0.1      26.6      27.0      27.4    422.57
    18     8  2024    49     2     294.5    16.4      0.0    0.0   15.4    1.0     11.6      0.0   -9.90      0.0      0.0    100      0.1      0.1   100      0.1     0.1     100     19.0    1.44      0      0      0      0      0    90.2    90.2      0     0.99      0.1      0.1      0.1   100    35.0     5.952    -9.9    0.000    0.000     100        0.00    0.000    0.000     294.5    294.5    1.44   191.6     606.9     167.5     124.8      61.4      61.4      35.3    0.000     0.000     0.000     0.000     0.000    1.44     0.00    0.00      0   -9.90   -9.00       28.3       12.5       12.8       12.5       12.3       12.2       12.1       12.0       12.0       11.9       11.9       11.9        0.0        0.0        0.0        0.0        0.0        0.0        0.0        0.0        0.0        0.0        0.0        0.0     16.4       0.1      26.0      27.0      27.9    422.57
    19     8  2024    50     2     287.3     6.2      0.0    0.0    6.2    0.0     13.3      0.0   -9.90      0.0      0.0    100      0.1      0.1   100      0.2     0.2     100     19.0    1.46      0      0      0      0      0    90.9    90.9      0     1.00      0.1      0.1      0.1   100    35.0     6.301    -9.9    0.000    0.000     100        0.00    0.000    0.000     287.3    287.3    1.46   186.6     615.5     169.9     126.7      62.3      62.3      35.8    0.000     0.000     0.000     0.000     0.000    1.46     0.00    0.00      0   -9.90   -9.00       18.7       12.8       13.3       12.7       12.4       12.3       12.2       12.1       12.0       12.0       11.9       11.9        0.0        0.0        0.0        0.0        0.0        0.0        0.0        0.0        0.0        0.0        0.0        0.0      6.2       0.1      26.0      27.0      28.0    422.57
    20     8  2024    51     2     291.6    15.7      0.0    0.0   14.8    0.9     10.4      0.0   -9.90      0.0      0.0    100      0.1      0.1   100      0.1     0.1     100     18.5    1.48      0      0      0      0      0    91.6    91.6      0     1.00      0.1      0.1      0.1   100    35.0     6.652    -9.9    0.000    0.000     100        0.00    0.000    0.000     291.6    291.6    1.48   193.8     624.2     172.3     128.4      63.2      63.2      36.3    0.000     0.000     0.000     0.000     0.000    1.48     0.00    0.00      0   -9.90   -9.00       27.5       12.3       12.5       12.3       12.2       12.1       12.0       12.0       11.9       11.9       11.9       11.9        0.0        0.0        0.0        0.0        0.0        0.0        0.0        0.0        0.0        0.0        0.0        0.0     15.7       0.1      25.6      26.5      27.5    422.57
    21     8  2024    52     2     286.4     6.4      0.0    0.0    6.4    0.0     11.5      0.0   -9.90      0.0      0.0    100      0.2      0.2   100      0.2     0.2     100     18.7    1.50      0      0      0      0      0    92.1    92.1      0     1.00      0.2      0.2      0.2   100    35.0     7.003    -9.9    0.000    0.000     100        0.00    0.000    0.000     286.4    286.4    1.50   190.8     632.8     174.7     130.3      64.2      64.2      36.8    0.000     0.000     0.000     0.000     0.000    1.50     0.00    0.00      0   -9.90   -9.00       18.9       12.7       13.2       12.6       12.4       12.2       12.1       12.0       12.0       11.9       11.9       11.9        0.0        0.0        0.0        0.0        0.0        0.0        0.0        0.0        0.0        0.0        0.0        0.0      6.4       0.2      25.3      26.7      28.0    422.57
    22     8  2024    53     2     288.1    11.9      0.0    0.0   11.5    0.4      9.6      0.0   -9.90      0.0      0.0    100      0.2      0.2   100      0.2     0.2     100     19.1    1.52      0      0      0      0      0    92.6    92.6      0     1.01      0.2      0.2      0.2   100    35.0     7.356    -9.9    0.000    0.000     100        0.00    0.000    0.000     288.1    288.1    1.52   195.2     641.3     177.0     132.1      65.1      65.1      37.3    0.000     0.000     0.000     0.000     0.000    1.52     0.00    0.00      0   -9.90   -9.00       24.1       12.3       12.5       12.3       12.2       12.1       12.0       12.0       11.9       11.9       11.9       11.8        0.0        0.0        0.0        0.0        0.0        0.0        0.0        0.0        0.0        0.0        0.0        0.0     11.9       0.2      25.5      27.1      28.7    422.57
    23     8  2024    54     2     287.0     8.9      0.0    0.0    8.8    0.1      9.6      0.0   -9.90      0.0      0.0    100      0.2      0.2   100      0.2     0.2     100     20.3    1.54      0      0      0      0      0    93.0    93.0      0     1.01      0.2      0.2      0.2   100    35.0     7.710    -9.9    0.000    0.000     100        0.00    0.000    0.000     287.0    287.0    1.54   196.5     649.8     179.4     134.0      66.0      66.0      37.8    0.000     0.000     0.000     0.000     0.000    1.54     0.00    0.00      0   -9.90   -9.00       21.4       12.6       12.9       12.4       12.2       12.1       12.0       12.0       11.9       11.9       11.9       11.8        0.0        0.0        0.0        0.0        0.0        0.0        0.0        0.0        0.0        0.0        0.0        0.0      8.9       0.2      26.6      28.5      30.5    422.57
    24     8  2024    55     2     278.3     1.1      0.0    0.0    1.1    0.0      9.6      0.0   -9.90      0.0      0.0    100      0.2      0.2   100      0.2     0.2     100     19.4    1.56      0      0      0      0      0    93.3    93.3      0     1.01      0.2      0.2      0.2   100    35.0     8.064    -9.9    0.000    0.000     100        0.00    0.000    0.000     278.3    278.3    1.56   190.1     658.3     181.7     135.5      66.7      66.7      38.3    0.000     0.000     0.000     0.000     0.000    1.56     0.00    0.00      0   -9.90   -9.00       12.8       12.5       12.7       12.4       12.4       12.1       12.0       12.0       11.9       11.9       11.9       11.9        0.0        0.0        0.0        0.0        0.0        0.0        0.0        0.0        0.0        0.0        0.0        0.0      1.1       0.1      26.4      27.4      28.5    422.57
    25     8  2024    56     3     272.4     0.6      0.0    0.0    0.6    0.0      6.3      0.0   -9.90      0.0      0.0    100      0.2      0.2   100      0.2     0.2     100     20.2    1.58      0      0      0      0      0    93.5    93.5      0     1.01      0.2      0.2      0.2   100    35.0     8.420    -9.9    0.000    0.000     100        0.00    0.000    0.000     272.4    272.4    1.58   187.2     666.7     184.0     137.5      67.7      67.7      38.8    0.000     0.000     0.000     0.000     0.000    1.58     0.00    0.00      0   -9.90   -9.00       12.2       11.9       11.9       11.9       11.9       11.9       11.9       11.8       11.8       11.8       11.8       11.8        0.0        0.0        0.0        0.0        0.0        0.0        0.0        0.0        0.0        0.0        0.0        0.0      0.6       0.2      26.4      28.3      30.2    422.57
    26     8  2024    57     3     280.6    11.3      0.0    0.0   11.0    0.3      2.6      0.0   -9.90      0.0      0.0    100      0.2      0.2   100      0.2     0.2     100     19.2    1.60      0      0      0      0      0    93.7    93.7      0     1.01      0.2      0.2      0.2   100    35.0     8.775    -9.9    0.000    0.000     100        0.00    0.000    0.000     280.6    280.6    1.60   198.1     675.1     186.4     139.0      68.4      68.4      39.3    0.000     0.000     0.000     0.000     0.000    1.60     0.00    0.00      0   -9.90   -9.00       22.8       11.8       11.8       11.8       11.8       11.8       11.8       11.8       11.7       11.7       11.7       11.7        0.0        0.0        0.0        0.0        0.0        0.0        0.0        0.0        0.0        0.0        0.0        0.0     11.3       0.2      26.0      27.2      28.5    422.57
    27     8  2024    58     3     282.7     7.2      0.0    0.0    7.1    0.0      4.9      0.0   -9.90      0.0      0.0    100      0.2      0.2   100      0.2     0.2     100     20.2    1.62      0      0      0      0      0    93.9    93.9      0     1.02      0.2      0.2      0.2   100    35.0     9.131     1.5    0.137    0.153     100        1.35    0.000    0.000     282.7    282.7    1.62   202.2     683.5     188.7     140.8      69.4      69.4      39.8    0.000     0.000     0.000     0.000     0.000    1.62     0.00    0.00      0   -9.90   -9.00       19.7       12.5       12.7       12.3       12.1       12.0       11.9       11.9       11.8       11.8       11.8       11.8        0.0        0.0        0.0        0.0        0.0        0.0        0.0        0.0        0.0        0.0        0.0        0.0      7.2       0.2      26.8      28.2      29.7    422.57
    28     8  2024    59     3     276.2     0.5      0.0    0.0    0.5    0.0      6.9      0.0   -9.90      0.0      0.0    100      0.2      0.2   100      0.2     0.2     100     20.7    1.64      0      0      0      0      0    94.0    94.0      0     1.02      0.2      0.2      0.2   100    35.0     9.487     1.8    0.175    0.194     100        1.69    0.000    0.000     276.2    276.2    1.64   197.7     691.8     191.0     142.5      70.2      70.2      40.3    0.000     0.000     0.000     0.000     0.000    1.64     0.00    0.00      0   -9.90   -9.00       12.4       12.4       12.5       12.3       12.2       12.0       12.0       11.9       11.9       11.9       11.8       11.8        0.0        0.0        0.0        0.0        0.0        0.0        0.0        0.0        0.0        0.0        0.0        0.0      0.5       0.2      27.4      28.7      29.9    422.57
    29     8  2024    60     3     272.5     1.4      0.0    0.0    1.4    0.0      4.9      0.0   -9.90      0.0      0.0    100      0.2      0.2   100      0.2     0.2     100     19.7    1.66      0      0      0      0      0    95.2    95.2      0     1.02      0.2      0.2      0.2   100    35.0     9.846     2.3    0.222    0.247     100        2.11    0.000    0.000     272.5    272.5    1.66   196.7     700.1     193.3     144.2      71.0      71.0      40.8    0.000     0.000     0.000     0.000     0.000    1.66     0.00    0.00      0   -9.90   -9.00       13.0       11.8       11.9       11.9       11.9       11.9       11.8       11.8       11.8       11.8       11.8       11.8        0.0        0.0        0.0        0.0        0.0        0.0        0.0        0.0        0.0        0.0        0.0        0.0      1.4       0.2      26.4      27.7      29.1    422.57
    30     8  2024    61     3     283.7    14.4      0.0    0.0   13.7    0.7      2.4      0.0   -9.90      0.0      0.0    100      0.2      0.2   100      0.2     0.2     100     19.7    1.68     -9      0      0      0      0    95.3    95.3      0     1.02      0.2      0.2      0.2   100    35.0    10.205     2.8    0.281    0.312     100        2.62    0.000    0.000     283.7    283.7    1.68   210.4     708.4     195.5     145.9      71.9      71.9      41.3    0.000     0.000     0.000     0.000     0.000    1.68     0.00    0.00      0   -9.90   -9.00       25.6       11.8       11.8       11.8       11.8       11.8       11.8       11.8       11.7       11.7       11.7       11.7        0.0        0.0        0.0        0.0        0.0        0.0        0.0        0.0        0.0        0.0        0.0        0.0     14.4       0.2      26.2      27.7      29.3    422.57
    31     8  2024    62     3     278.6     1.3      0.0    0.0    1.3    0.0      6.2      0.0   -9.90      0.0      0.0    100      0.2      0.2   100      0.2     0.2     100     19.8    1.70     -9      0      0      0      0    95.4    95.4      0     1.02      0.2      0.2      0.2   100    35.0    10.564     3.3    0.354    0.393     100        3.25    0.000    0.000     278.6    278.6    1.70   207.0     716.6     197.8     147.6      72.7      72.7      41.8    0.000     0.000     0.000     0.000     0.000    1.70     0.00    0.00      0   -9.90   -9.00       13.0       12.6       13.0       12.5       12.4       12.1       12.0       11.9       11.9       11.9       11.8       11.8        0.0        0.0        0.0        0.0        0.0        0.0        0.0        0.0        0.0        0.0        0.0        0.0      1.3       0.2      26.3      27.8      29.2    422.57
     1     9  2024    63     3     279.5     7.2      0.0    0.0    7.1    0.0      6.0      0.0   -9.90      0.0      0.0    100      0.2      0.2   100      0.2     0.2     100     19.5    1.71     -9      0      0      0      0    95.5    95.5      0     1.02      0.2      0.2      0.2   100    35.0    10.921     4.1    0.444    0.493     100        3.99    0.000    0.000     279.5    279.5    1.71   210.4     724.8     200.1     149.5      73.7      73.7      42.3    0.000     0.000     0.000     0.000     0.000    1.71     0.00    0.00      0   -9.90   -9.00       18.9       11.9       12.0       12.0       11.9       11.9       11.9       11.9       11.8       11.8       11.8       11.8        0.0        0.0        0.0        0.0        0.0        0.0        0.0        0.0        0.0        0.0        0.0        0.0      7.2       0.2      25.5      27.5      29.5    422.57
     2     9  2024    64     3     293.0    20.8      0.0    0.0   18.9    1.9      5.2      0.0   -9.90      0.0      0.0    100      0.2      0.2   100      0.2     0.2     100     19.5    1.73     -9      0      0      0      0    95.6    95.6      0     1.02      0.2      0.2      0.2   100    35.0    11.278     4.9    0.555    0.616     100        4.89    0.000    0.000     293.0    293.0    1.73   226.2     732.9     202.3     151.2      74.5      74.5      42.7    0.000     0.000     0.000     0.000     0.000    1.73     0.00    0.00      0   -9.90   -9.00       31.5       12.3       12.4       12.1       12.0       11.9       11.9       11.8       11.8       11.8       11.8       11.8        0.0        0.0        0.0        0.0        0.0        0.0        0.0        0.0        0.0        0.0        0.0        0.0     20.8       0.2      25.5      27.5      29.4    422.57
     3     9  2024    65     3     282.3     0.9      0.0    0.0    0.9    0.0     11.3      0.0   -9.90      0.0      0.0    100      0.2      0.2   100      0.2     0.2     100     20.1    1.75     -9      0      0      0      0    95.6    95.6      0     1.02      0.2      0.2      0.2   100    35.0    11.634     5.9    0.689    0.766     100        5.99    0.000    0.000     282.3    282.3    1.75   217.1     741.1     204.6     152.7      75.2      75.2      43.2    0.000     0.000     0.000     0.000     0.000    1.75     0.00    0.00      0   -9.90   -9.00       12.6       12.8       13.5       12.8       12.5       12.3       12.3       12.1       12.0       12.0       11.9       11.9        0.0        0.0        0.0        0.0        0.0        0.0        0.0        0.0        0.0        0.0        0.0        0.0      0.9       0.2      26.6      28.1      29.5    422.57
     4     9  2024    66     3     275.0     1.6      0.0    0.0    1.6    0.0      8.8      0.0   -9.90      0.0      0.0    100      0.2      0.2   100      0.2     0.2     100     20.1    1.77     -9      0      0      0      0    95.7    95.7      0     1.01      0.2      0.2      0.2   100    35.0    11.989     7.1    0.852    0.947     100        7.29    0.000    0.000     275.0    275.0    1.77   212.4     749.2     206.8     154.2      76.0      76.0      43.7    0.000     0.000     0.000     0.000     0.000    1.77     0.00    0.00      0   -9.90   -9.00       13.3       11.9       12.1       12.0       12.0       12.0       11.9       11.9       11.9       11.9       11.8       11.8        0.0        0.0        0.0        0.0        0.0        0.0        0.0        0.0        0.0        0.0        0.0        0.0      1.6       0.2      26.9      28.1      29.2    422.57
     5     9  2024    67     3     273.7     3.0      0.0    0.0    3.0    0.0      4.1      0.0   -9.90      0.0      0.0    100      0.1      0.1   100      0.1     0.1     100     20.3    1.79     -9      0      0      0      0    95.7    95.7      0     1.01      0.1      0.1      0.1   100    35.0    12.343     8.5    1.046    1.162     100        8.85    0.000    0.000     273.7    273.7    1.79   213.9     757.2     209.0     155.8      76.7      76.7      44.2    0.000     0.000     0.000     0.000     0.000    1.79     0.00    0.00      0   -9.90   -9.00       14.8       11.8       11.9       11.8       11.8       11.8       11.8       11.8       11.8       11.8       11.8       11.8        0.0        0.0        0.0        0.0        0.0        0.0        0.0        0.0        0.0        0.0        0.0        0.0      3.0       0.1      27.5      28.3      29.2    422.57
     6     9  2024    68     3     271.2     0.1      0.0    0.0    0.1    0.0      2.6      0.0   -9.90      0.0      0.0    100      0.2      0.2   100      0.2     0.2     100     20.0    1.81     -9      0      0      0      0    95.8    95.8      0     1.01      0.2      0.2      0.2   100    35.0    12.697    10.0    1.269    1.410     100       10.59    0.000    0.000     271.2    271.2    1.81   213.6     765.3     211.2     157.6      77.6      77.6      44.6    0.000     0.000     0.000     0.000     0.000    1.81     0.00    0.00      0   -9.90   -9.00       11.9       12.0       12.0       11.9       11.8       11.8       11.8       11.8       11.8       11.7       11.7       11.7        0.0        0.0        0.0        0.0        0.0        0.0        0.0        0.0        0.0        0.0        0.0        0.0      0.1       0.2      26.8      28.0      29.1    422.57
     7     9  2024    69     4     269.7     0.4      0.0    0.0    0.4    0.0      1.6      0.0   -9.90      0.0      0.0    100      0.2      0.2   100      0.2     0.2     100     19.9    1.83     -9      0      0      0      0    95.8    95.8      0     1.01      0.2      0.2      0.2   100    35.0    13.049    11.5    1.502    1.669     100       12.35    0.000    0.000     269.7    269.7    1.83   214.5     773.3     213.5     159.3      78.5      78.5      45.1    0.000     0.000     0.000     0.000     0.000    1.83     0.00    0.00      0   -9.90   -9.00       11.9       11.7       11.8       11.8       11.8       11.8       11.7       11.7       11.7       11.7       11.7       11.7        0.0        0.0        0.0        0.0        0.0        0.0        0.0        0.0        0.0        0.0        0.0        0.0      0.4       0.2      26.4      27.9      29.4    422.57
     8     9  2024    70     4     269.2     0.5      0.0    0.0    0.5    0.0      0.7      0.0   -9.90      0.0      0.0    100      0.2      0.2   100      0.2     0.2     100     20.2    1.85     -9      0      0      0      0    95.8    95.8      0     1.00      0.2      0.2      0.2   100    35.0    13.401    13.0    1.747    1.941     100       14.13    0.000    0.000     269.2    269.2    1.85   216.3     781.3     215.7     161.0      79.4      79.4      45.6    0.000     0.000     0.000     0.000     0.000    1.85     0.00    0.00      0   -9.90   -9.00       12.0       11.7       11.7       11.7       11.7       11.7       11.7       11.7       11.7       11.7       11.7       11.7        0.0        0.0        0.0        0.0        0.0        0.0        0.0        0.0        0.0        0.0        0.0        0.0      0.5       0.2      26.6      28.2      29.7    422.57
     9     9  2024    71     4     278.4     9.8      0.0    0.0    9.6    0.2      0.4      0.0   -9.90      0.0      0.0    100      0.1      0.1   100      0.1     0.1     100     18.9    1.87     -9      0      0      0      0    95.9    95.9      0     1.00      0.1      0.1      0.1   100    35.0    13.751    14.6    2.001    2.224     100       16.01    0.000    0.000     278.4    278.4    1.87   227.6     789.2     217.9     162.4      80.0      80.0      46.1    0.000     0.000     0.000     0.000     0.000    1.87     0.00    0.00      0   -9.90   -9.00       21.4       11.7       11.7       11.7       11.7       11.7       11.7       11.7       11.7       11.7       11.7       11.7        0.0        0.0        0.0        0.0        0.0        0.0        0.0        0.0        0.0        0.0        0.0        0.0      9.8       0.1      26.0      26.9      27.8    422.57
    10     9  2024    72     4     294.3    21.8      0.0    0.0   19.6    2.1      3.5      0.0   -9.90      0.0      0.0    100      0.2      0.2   100      0.2     0.2     100     19.0    1.89     -9      0      0      0      0    95.9    95.9      0     1.00      0.2      0.2      0.2   100    35.0    14.101    16.1    2.267    2.518     100       17.89    0.000    0.000     294.3    294.3    1.89   245.5     797.2     220.0     164.2      80.9      80.9      46.5    0.000     0.000     0.000     0.000     0.000    1.89     0.00    0.00      0   -9.90   -9.00       32.5       12.4       12.6       12.2       12.0       11.9       11.9       11.8       11.8       11.8       11.8       11.8        0.0        0.0        0.0        0.0        0.0        0.0        0.0        0.0        0.0        0.0        0.0        0.0     21.8       0.2      25.7      27.0      28.3    422.57
    11     9  2024    73     4     293.1    10.9      0.0    0.0   10.6    0.3     11.7      0.0   -9.90      0.0      0.0    100      0.2      0.2   100      0.2     0.2     100     19.0    1.90     -9      0      0      0      0    95.9    95.9      0     0.99      0.2      0.2      0.2   100    35.0    14.449    17.6    2.542    2.825     100       19.77    0.000    0.000     293.1    293.1    1.90   246.0     805.1     222.2     165.9      81.8      81.8      47.0    0.000     0.000     0.000     0.000     0.000    1.90     0.00    0.00      0   -9.90   -9.00       23.4       12.9       13.6       12.9       12.6       12.3       12.2       12.1       12.0       12.0       11.9       11.9        0.0        0.0        0.0        0.0        0.0        0.0        0.0        0.0        0.0        0.0        0.0        0.0     10.9       0.2      25.4      27.0      28.7    422.57
    12     9  2024    74     4     282.1     2.5      0.0    0.0    2.5    0.0     13.3      0.0   -9.90      0.0      0.0    100      0.2      0.2   100      0.2     0.2     100     19.6    1.92     -9      0      0      0      0    95.9    95.9      0     0.99      0.2      0.2      0.2   100    35.0    14.797    19.1    2.828    3.143     100       21.69    0.000    0.000     282.1    282.1    1.92   237.1     813.0     224.4     167.5      82.6      82.6      47.5    0.000     0.000     0.000     0.000     0.000    1.92     0.00    0.00      0   -9.90   -9.00       14.4       12.6       12.9       12.6       12.4       12.2       12.2       12.1       12.0       12.0       12.0       11.9        0.0        0.0        0.0        0.0        0.0        0.0        0.0        0.0        0.0        0.0        0.0        0.0      2.5       0.2      26.2      27.6      29.1    422.57
    13     9  2024    75     4     275.0     1.6      0.0    0.0    1.6    0.0      8.5      0.0   -9.90      0.0      0.0    100      0.2      0.2   100      0.2     0.2     100     20.0    1.94     -9      0      0      0      0    95.9    95.9      0     0.99      0.2      0.2      0.2   100    35.0    15.144    20.6    3.125    3.472     100       23.60    0.000    0.000     275.0    275.0    1.94   232.5     820.8     226.6     169.3      83.5      83.5      47.9    0.000     0.000     0.000     0.000     0.000    1.94     0.00    0.00      0   -9.90   -9.00       13.3       12.0       12.1       12.0       12.0       12.0       11.9       11.9       11.9       11.9       11.8       11.8        0.0        0.0        0.0        0.0        0.0        0.0        0.0        0.0        0.0        0.0        0.0        0.0      1.6       0.2      26.2      28.0      29.9    422.57
    14     9  2024    76     4     276.9     6.1      0.0    0.0    6.1    0.0      4.0      0.0   -9.90      0.0      0.0    100      0.2      0.2   100      0.2     0.2     100     19.2    1.96     -9      0     -9      0      0    95.3    95.3      0     0.98      0.2      0.2      0.2   100    35.0    15.486    22.2    3.431    3.812     100       25.57    0.000    0.000     276.9    276.9    1.96   236.8     828.6     228.7     170.7      84.2      84.2      48.4    0.000     0.000     0.000     0.000     0.000    1.96     0.00    0.00      0   -9.90   -9.00       17.9       11.9       11.9       11.8       11.8       11.8       11.8       11.8       11.8       11.8       11.8       11.8        0.0        0.0        0.0        0.0        0.0        0.0        0.0        0.0        0.0        0.0        0.0        0.0      6.1       0.2      25.6      27.2      28.8    422.57
    15     9  2024    77     4     284.8    12.1      0.0    0.0   11.7    0.4      3.6      0.0   -9.90      0.0      0.0    100      0.2      0.2   100      0.2     0.2     100     19.5    1.98     -9      0     -9      0      0    94.6    94.6      0     0.96      0.2      0.2      0.2   100    35.0    15.823    23.7    3.746    4.162     100       27.52    0.000    0.000     284.8    284.8    1.98   246.9     836.4     230.9     172.5      85.0      85.0      48.8    0.000     0.000     0.000     0.000     0.000    1.98     0.00    0.00      0   -9.90   -9.00       24.1       12.2       12.3       12.0       11.9       11.9       11.8       11.8       11.8       11.8       11.8       11.8        0.0        0.0        0.0        0.0        0.0        0.0        0.0        0.0        0.0        0.0        0.0        0.0     12.1       0.2      25.6      27.5      29.4    422.57
    16     9  2024    78     4     284.9     7.5      0.0    0.0    7.5    0.0      7.2      0.0   -9.90      0.0      0.0    100      0.1      0.1   100      0.1     0.1     100     18.8    2.00     -9      0     -9      0      0    93.9    93.9      0     0.95      0.1      0.1      0.1   100    35.0    16.155    25.2    4.070    4.523     100       29.61    0.000    0.000     284.9    284.9    2.00   249.0     844.2     233.0     173.7      85.6      85.6      49.3    0.000     0.000     0.000     0.000     0.000    2.00     0.00    0.00      0   -9.90   -9.00       20.1       12.6       12.9       12.4       12.2       12.1       12.0       11.9       11.9       11.9       11.8       11.8        0.0        0.0        0.0        0.0        0.0        0.0        0.0        0.0        0.0        0.0        0.0        0.0      7.5       0.1      25.8      26.8      27.7    422.57
    17     9  2024    79     4     305.1    35.0      0.0    0.0   28.7    6.3      8.4      0.0   -9.90      0.0      0.0    100      0.1      0.1   100      0.1     0.1     100     17.9    2.01     -9      0     -9      0      0    93.0    93.0      0     0.93      0.1      0.1      0.1   100    35.0    16.481    26.7    4.403    4.892     100       31.76    0.000    0.000     305.1    305.1    2.01   271.3     852.0     235.2     175.1      86.3      86.3      49.8    0.000     0.000     0.000     0.000     0.000    2.01     0.00    0.00      0   -9.90   -9.00       41.0       12.4       12.6       12.3       12.3       12.1       12.0       12.0       11.9       11.9       11.9       11.8        0.0        0.0        0.0        0.0        0.0        0.0        0.0        0.0        0.0        0.0        0.0        0.0     35.0       0.1      25.2      25.9      26.6    422.57
    18     9  2024    80     4     315.7    36.1      0.0    0.0   29.4    6.7     18.6      0.0   -9.90      0.0      0.0    100      0.2      0.2   100      0.2     0.2     100     19.1    2.03     -9      0     -9      0      0    92.0    92.0      0     0.91      0.2      0.2      0.2   100    35.0    16.801    28.2    4.744    5.271     100       33.76    0.000    0.000     315.7    315.7    2.03   283.7     859.7     237.3     177.3      87.4      87.4      50.2    0.000     0.000     0.000     0.000     0.000    2.03     0.00    0.00      0   -9.90   -9.00       41.5       12.8       14.2       13.4       12.9       12.6       12.4       12.3       12.2       12.1       12.0       12.0        0.0        0.0        0.0        0.0        0.0        0.0        0.0        0.0        0.0        0.0        0.0        0.0     36.1       0.2      25.3      27.1      29.0    422.57
    19     9  2024    81     4     295.4     5.9      0.0    0.0    5.9    0.0     26.1      0.0   -9.90      0.0      0.0    100      0.2      0.2   100      0.2     0.2     100     19.2    2.05     -9      0     -9      0      0    90.9    90.9      0     0.89      0.2      0.2      0.2   100    35.0    17.113    29.8    5.092    5.658     100       35.81    0.000    0.000     295.4    295.4    2.05   265.3     867.4     239.4     178.7      88.1      88.1      50.7    0.000     0.000     0.000     0.000     0.000    2.05     0.00    0.00      0   -9.90   -9.00       17.7       12.7       14.3       13.6       13.1       12.8       12.6       12.4       12.3       12.2       12.1       12.1        0.0        0.0        0.0        0.0        0.0        0.0        0.0        0.0        0.0        0.0        0.0        0.0      5.9       0.2      25.7      27.2      28.7    422.57
    20     9  2024    82     4     280.7     2.6      0.0    0.0    2.6    0.0     17.1      0.0   -9.90      0.0      0.0    100      0.2      0.2   100      0.2     0.2     100     19.7    2.07     -9      0     -9      0      0    89.6    89.6      0     0.87      0.2      0.2      0.2   100    35.0    17.418    31.3    5.448    6.053     100       37.85    0.000    0.000     280.7    280.7    2.07   253.1     875.1     241.5     180.4      89.0      89.0      51.1    0.000     0.000     0.000     0.000     0.000    2.07     0.00    0.00      0   -9.90   -9.00       14.6       12.3       12.4       12.3       12.3       12.2       12.1       12.1       12.0       12.0       12.0       11.9        0.0        0.0        0.0        0.0        0.0        0.0        0.0        0.0        0.0        0.0        0.0        0.0      2.6       0.2      26.0      27.7      29.4    422.57
    21     9  2024    83     4     276.7     3.8      0.0    0.0    3.8    0.0      7.7      0.0   -9.90      0.0      0.0    100      0.2      0.2   100      0.2     0.2     100     19.6    2.09     -9      0     -9      0      0    88.2    88.2      0     0.84      0.2      0.2      0.2   100    35.0    17.714    32.8    5.810    6.455     100       39.92    0.000    0.000     276.7    276.7    2.09   251.5     882.8     243.7     181.9      89.7      89.7      51.6    0.000     0.000     0.000     0.000     0.000    2.09     0.00    0.00      0   -9.90   -9.00       15.8       12.0       12.0       12.0       11.9       11.9       11.9       11.9       11.8       11.8       11.8       11.8        0.0        0.0        0.0        0.0        0.0        0.0        0.0        0.0        0.0        0.0        0.0        0.0      3.8       0.2      26.1      27.6      29.2    422.57
    22     9  2024    84     4     292.1    22.1      0.0    0.0   19.9    2.2      4.2      0.0   -9.90      0.0      0.0    100      0.1      0.1   100      0.2     0.2     100     19.3    2.10     -9      0     -9      0      0    86.6    86.6      0     0.82      0.1      0.1      0.1   100    35.0    18.001    34.3    6.177    6.864     100       41.98    0.000    0.000     292.1    292.1    2.10   269.2     890.4     245.8     183.5      90.5      90.5      52.0    0.000     0.000     0.000     0.000     0.000    2.10     0.00    0.00      0   -9.90   -9.00       32.3       12.1       12.1       12.0       11.9       11.9       11.8       11.8       11.8       11.8       11.8       11.8        0.0        0.0        0.0        0.0        0.0        0.0        0.0        0.0        0.0        0.0        0.0        0.0     22.1       0.2      25.7      27.3      28.9    422.57
    23     9  2024    85     4     295.4    14.6      0.0    0.0   13.9    0.7     10.4      0.0   -9.90      0.0      0.0    100      0.2      0.2   100      0.2     0.2     100     19.6    2.12     -9      0     -9      0      0    84.8    84.8      0     0.79      0.2      0.2      0.2   100    35.0    18.277    35.8    6.550    7.278     100       43.97    0.000    0.000     295.4    295.4    2.12   274.4     898.0     247.9     185.3      91.4      91.4      52.5    0.000     0.000     0.000     0.000     0.000    2.12     0.00    0.00      0   -9.90   -9.00       26.7       12.8       13.5       12.8       12.5       12.3       12.1       12.0       12.0       11.9       11.9       11.9        0.0        0.0        0.0        0.0        0.0        0.0        0.0        0.0        0.0        0.0        0.0        0.0     14.6       0.2      25.6      27.6      29.6    422.57
    24     9  2024    86     4     285.4     4.2      0.0    0.0    4.2    0.0     14.0      0.0   -9.90      0.0      0.0    100      0.2      0.2   100      0.2     0.2     100     19.7    2.14     -9      0     -9      0      0    82.8    82.8      0     0.76      0.2      0.2      0.2   100    35.0    18.542    37.4    6.927    7.697     100       45.98    0.000    0.000     285.4    285.4    2.14   266.4     905.6     250.0     186.8      92.1      92.1      52.9    0.000     0.000     0.000     0.000     0.000    2.14     0.00    0.00      0   -9.90   -9.00       16.4       12.7       13.2       12.7       12.5       12.3       12.2       12.1       12.0       12.0       12.0       11.9        0.0        0.0        0.0        0.0        0.0        0.0        0.0        0.0        0.0        0.0        0.0        0.0      4.2       0.2      26.0      27.7      29.5    422.57
    25     9  2024    87     4     292.2    18.2      0.0    0.0   16.8    1.3      9.9      0.0   -9.90      0.0      0.0    100      0.1      0.1   100      0.1     0.1     100     18.3    2.16     -9      0     -9      0      0    80.5    80.5      0     0.72      0.1      0.1      0.1   100    35.0    18.795    38.9    7.307    8.119     100       48.09    0.000    0.000     292.2    292.2    2.16   275.5     913.2     252.1     188.0      92.7      92.7      53.4    0.000     0.000     0.000     0.000     0.000    2.16     0.00    0.00      0   -9.90   -9.00       29.3       12.2       12.3       12.2       12.1       12.0       12.0       11.9       11.9       11.9       11.9       11.8        0.0        0.0        0.0        0.0        0.0        0.0        0.0        0.0        0.0        0.0        0.0        0.0     18.2       0.2      25.1      26.3      27.5    422.57
[...]
    10    12  2025    -9     0     264.2     0.0      0.0    0.0    0.0    0.0      0.0      0.0   -9.90      0.3      0.2     90      0.0      0.0   100      0.3     0.2      90     18.0    2.28     -9     -9     -9      0     -9     0.0     0.0      0    -9.00      0.0      0.0      0.0   100    35.1    20.220    48.0    9.706   10.784     100       57.52    0.000    0.000     264.2    264.2    2.28   262.1     965.7     266.5     199.2      98.4      98.3      56.5    0.000     0.000     0.000     0.000     0.000    2.28     0.00    0.00      0   -9.90   -9.00        7.2       11.7       11.7       11.7       11.7       11.7       11.7       11.7       11.7       11.7       11.7       11.7        0.0        0.0        0.0        0.0        0.0        0.0        0.0        0.0        0.0        0.0        0.0        0.0      0.0       0.2      23.0      26.0      29.0    424.57
    11    12  2025    -9     0     263.9     0.0      0.0    0.0    0.0    0.0      0.0      0.0   -9.90      0.3      0.2     83      0.0      0.0   100      0.3     0.2      83     17.4    2.28     -9     -9     -9      0     -9     0.0     0.0      0    -9.00      0.0      0.0      0.0   100    35.1    20.220    48.0    9.706   10.784     100       57.52    0.000    0.000     263.9    263.9    2.28   261.9     965.7     266.5     199.2      98.5      98.3      56.5    0.000     0.000     0.000     0.000     0.000    2.28     0.00    0.00      0   -9.90   -9.00        7.0       11.7       11.7       11.7       11.7       11.7       11.7       11.7       11.7       11.7       11.7       11.7        0.0        0.0        0.0        0.0        0.0        0.0        0.0        0.0        0.0        0.0        0.0        0.0      0.0       0.2      22.0      25.4      28.7    424.57
    12    12  2025    -9     0     263.7     0.0      0.0    0.0    0.0    0.0      0.0      0.0   -9.90      0.3      0.2     77      0.0      0.0   100      0.3     0.2      77     17.0    2.28     -9     -9     -9      0     -9     0.0     0.0      0    -9.00      0.0      0.0      0.0   100    35.1    20.220    48.0    9.706   10.784     100       57.52    0.000    0.000     263.7    263.7    2.28   261.7     965.7     266.5     199.2      98.5      98.3      56.5    0.000     0.000     0.000     0.000     0.000    2.28     0.00    0.00      0   -9.90   -9.00        6.7       11.7       11.7       11.7       11.7       11.7       11.7       11.7       11.7       11.7       11.7       11.7        0.0        0.0        0.0        0.0        0.0        0.0        0.0        0.0        0.0        0.0        0.0        0.0      0.0       0.3      21.3      25.0      28.6    424.57
    13    12  2025    -9     0     263.5     0.0      0.0    0.0    0.0    0.0      0.0      0.0   -9.90      0.3      0.2     71      0.0      0.0   100      0.3     0.2      71     16.4    2.28     -9     -9     -9      0     -9     0.0     0.0      0    -9.00      0.0      0.0      0.0   100    35.1    20.220    48.0    9.706   10.784     100       57.52    0.000    0.000     263.5    263.5    2.28   261.5     965.7     266.5     199.2      98.4      98.3      56.5    0.000     0.000     0.000     0.000     0.000    2.28     0.00    0.00      0   -9.90   -9.00        6.6       11.7       11.7       11.7       11.7       11.7       11.7       11.7       11.7       11.7       11.7       11.7        0.0        0.0        0.0        0.0        0.0        0.0        0.0        0.0        0.0        0.0        0.0        0.0      0.0       0.2      21.3      24.4      27.5    424.57
    14    12  2025    -9     0     263.4     0.0      0.0    0.0    0.0    0.0      0.0      0.0   -9.90      0.2      0.2     67      0.0      0.0   100      0.2     0.2      67     14.3    2.28     -9     -9     -9      0     -9     0.0     0.0      0    -9.00      0.0      0.0      0.0   100    35.1    20.220    48.0    9.706   10.784     100       57.52    0.000    0.000     263.4    263.4    2.28   261.3     965.7     266.5     199.2      98.3      98.3      56.5    0.000     0.000     0.000     0.000     0.000    2.28     0.00    0.00      0   -9.90   -9.00        6.4       11.7       11.7       11.7       11.7       11.7       11.7       11.7       11.7       11.7       11.7       11.7        0.0        0.0        0.0        0.0        0.0        0.0        0.0        0.0        0.0        0.0        0.0        0.0      0.0       0.2      19.4      22.3      25.2    424.57
    15    12  2025    -9     0     263.2     0.0      0.0    0.0    0.0    0.0      0.0      0.0   -9.90      0.3      0.2     63      0.0      0.0   100      0.3     0.2      63     14.4    2.28     -9     -9     -9      0     -9     0.0     0.0      0    -9.00      0.0      0.0      0.0   100    35.1    20.220    48.0    9.706   10.784     100       57.52    0.000    0.000     263.2    263.2    2.28   261.1     965.7     266.5     199.2      98.5      98.3      56.5    0.000     0.000     0.000     0.000     0.000    2.28     0.00    0.00      0   -9.90   -9.00        6.2       11.7       11.7       11.7       11.7       11.7       11.7       11.7       11.7       11.7       11.7       11.7        0.0        0.0        0.0        0.0        0.0        0.0        0.0        0.0        0.0        0.0        0.0        0.0      0.0       0.2      18.7      22.4      26.2    424.57
    16    12  2025    -9     0     263.0     0.0      0.0    0.0    0.0    0.0      0.0      0.0   -9.90      0.3      0.2     59      0.0      0.0   100      0.3     0.2      59     16.3    2.28     -9     -9     -9      0     -9     0.0     0.0      0    -9.00      0.0      0.0      0.0   100    35.1    20.220    48.0    9.706   10.784     100       57.52    0.000    0.000     263.0    263.0    2.28   261.0     965.7     266.5     199.2      98.5      98.3      56.5    0.000     0.000     0.000     0.000     0.000    2.28     0.00    0.00      0   -9.90   -9.00        6.0       11.7       11.7       11.7       11.7       11.7       11.7       11.7       11.7       11.7       11.7       11.7        0.0        0.0        0.0        0.0        0.0        0.0        0.0        0.0        0.0        0.0        0.0        0.0      0.0       0.2      21.0      24.3      27.6    424.57
    17    12  2025    -9     0     262.9     0.0      0.0    0.0    0.0    0.0      0.0      0.0   -9.90      0.3      0.1     56      0.0      0.0   100      0.3     0.1      56     16.1    2.28     -9     -9     -9      0     -9     0.0     0.0      0    -9.00      0.0      0.0      0.0   100    35.1    20.220    48.0    9.706   10.784     100       57.52    0.000    0.000     262.9    262.9    2.28   260.8     965.7     266.5     199.2      98.4      98.3      56.5    0.000     0.000     0.000     0.000     0.000    2.28     0.00    0.00      0   -9.90   -9.00        5.9       11.7       11.7       11.7       11.7       11.7       11.7       11.7       11.7       11.7       11.7       11.7        0.0        0.0        0.0        0.0        0.0        0.0        0.0        0.0        0.0        0.0        0.0        0.0      0.0       0.2      21.4      24.1      26.9    424.57
    18    12  2025    -9     0     262.8     0.0      0.0    0.0    0.0    0.0      0.0      0.0   -9.90      0.2      0.1     54      0.0      0.0   100      0.2     0.1      54     15.2    2.28     -9     -9     -9      0     -9     0.0     0.0      0    -9.00      0.0      0.0      0.0   100    35.1    20.220    48.0    9.706   10.784     100       57.52    0.000    0.000     262.8    262.8    2.28   260.7     965.7     266.5     199.2      98.3      98.3      56.5    0.000     0.000     0.000     0.000     0.000    2.28     0.00    0.00      0   -9.90   -9.00        5.8       11.7       11.7       11.7       11.7       11.7       11.7       11.7       11.7       11.7       11.7       11.7        0.0        0.0        0.0        0.0        0.0        0.0        0.0        0.0        0.0        0.0        0.0        0.0      0.0       0.2      20.3      23.2      26.0    424.57
    19    12  2025    -9     0     262.6     0.0      0.0    0.0    0.0    0.0      0.0      0.0   -9.90      0.3      0.1     51      0.0      0.0   100      0.3     0.1      51     14.9    2.28     -9     -9     -9      0     -9     0.0     0.0      0    -9.00      0.0      0.0      0.0   100    35.1    20.220    48.0    9.706   10.784     100       57.52    0.000    0.000     262.6    262.6    2.28   260.6     965.7     266.5     199.2      98.5      98.3      56.5    0.000     0.000     0.000     0.000     0.000    2.28     0.00    0.00      0   -9.90   -9.00        5.6       11.7       11.7       11.7       11.7       11.7       11.7       11.7       11.7       11.7       11.7       11.7        0.0        0.0        0.0        0.0        0.0        0.0        0.0        0.0        0.0        0.0        0.0        0.0      0.0       0.3      19.2      22.9      26.7    424.57
    20    12  2025    -9     0     262.5     0.0      0.0    0.0    0.0    0.0      0.0      0.0   -9.90      0.3      0.1     48      0.0      0.0   100      0.3     0.1      48     16.2    2.28     -9     -9     -9      0     -9     0.0     0.0      0    -9.00      0.0      0.0      0.0   100    35.1    20.220    48.0    9.706   10.784     100       57.52    0.000    0.000     262.5    262.5    2.28   260.4     965.7     266.5     199.2      98.5      98.3      56.5    0.000     0.000     0.000     0.000     0.000    2.28     0.00    0.00      0   -9.90   -9.00        5.5       11.7       11.7       11.7       11.7       11.7       11.7       11.7       11.7       11.7       11.7       11.7        0.0        0.0        0.0        0.0        0.0        0.0        0.0        0.0        0.0        0.0        0.0        0.0      0.0       0.2      20.7      24.2      27.7    424.57
    21    12  2025    -9     0     262.3     0.0      0.0    0.0    0.0    0.0      0.0      0.0   -9.90      0.3      0.1     46      0.0      0.0   100      0.3     0.1      46     16.1    2.28     -9     -9     -9      0     -9     0.0     0.0      0    -9.00      0.0      0.0      0.0   100    35.1    20.220    48.0    9.706   10.784     100       57.52    0.000    0.000     262.3    262.3    2.28   260.3     965.7     266.5     199.2      98.5      98.3      56.5    0.000     0.000     0.000     0.000     0.000    2.28     0.00    0.00      0   -9.90   -9.00        5.4       11.7       11.7       11.7       11.7       11.7       11.7       11.7       11.7       11.7       11.7       11.7        0.0        0.0        0.0        0.0        0.0        0.0        0.0        0.0        0.0        0.0        0.0        0.0      0.0       0.3      20.5      24.1      27.8    424.57
    22    12  2025    -9     0     262.2     0.0      0.0    0.0    0.0    0.0      0.0      0.0   -9.90      0.3      0.1     44      0.0      0.0   100      0.3     0.1      44     15.9    2.28     -9     -9     -9      0     -9     0.0     0.0      0    -9.00      0.0      0.0      0.0   100    35.1    20.220    48.0    9.706   10.784     100       57.52    0.000    0.000     262.2    262.2    2.28   260.2     965.7     266.5     199.2      98.5      98.3      56.5    0.000     0.000     0.000     0.000     0.000    2.28     0.00    0.00      0   -9.90   -9.00        5.2       11.7       11.7       11.7       11.7       11.7       11.7       11.7       11.7       11.7       11.7       11.7        0.0        0.0        0.0        0.0        0.0        0.0        0.0        0.0        0.0        0.0        0.0        0.0      0.0       0.2      20.4      23.9      27.4    424.57
    23    12  2025    -9     0     262.1     0.0      0.0    0.0    0.0    0.0      0.0      0.0   -9.90      0.3      0.1     42      0.0      0.0   100      0.3     0.1      42     16.0    2.28     -9     -9     -9      0     -9     0.0     0.0      0    -9.00      0.0      0.0      0.0   100    35.1    20.220    48.0    9.706   10.784     100       57.52    0.000    0.000     262.1    262.1    2.28   260.1     965.7     266.5     199.2      98.5      98.3      56.5    0.000     0.000     0.000     0.000     0.000    2.28     0.00    0.00      0   -9.90   -9.00        5.1       11.7       11.7       11.7       11.7       11.7       11.7       11.7       11.7       11.7       11.7       11.7        0.0        0.0        0.0        0.0        0.0        0.0        0.0        0.0        0.0        0.0        0.0        0.0      0.0       0.2      20.7      24.0      27.4    424.57
    24    12  2025    -9     0     262.0     0.0      0.0    0.0    0.0    0.0      0.0      0.0   -9.90      0.3      0.1     41      0.0      0.0   100      0.3     0.1      41     16.3    2.28     -9     -9     -9      0     -9     0.0     0.0      0    -9.00      0.0      0.0      0.0   100    35.1    20.220    48.0    9.706   10.784     100       57.52    0.000    0.000     262.0    262.0    2.28   260.0     965.7     266.5     199.2      98.4      98.3      56.5    0.000     0.000     0.000     0.000     0.000    2.28     0.00    0.00      0   -9.90   -9.00        5.0       11.7       11.7       11.7       11.7       11.7       11.7       11.7       11.7       11.7       11.7       11.7        0.0        0.0        0.0        0.0        0.0        0.0        0.0        0.0        0.0        0.0        0.0        0.0      0.0       0.2      21.6      24.3      27.1    424.57
    25    12  2025    -9     0     261.9     0.0      0.0    0.0    0.0    0.0      0.0      0.0   -9.90      0.3      0.1     39      0.0      0.0   100      0.3     0.1      39     16.1    2.28     -9     -9     -9      0     -9     0.0     0.0      0    -9.00      0.0      0.0      0.0   100    35.1    20.220    48.0    9.706   10.784     100       57.52    0.000    0.000     261.9    261.9    2.28   259.9     965.7     266.5     199.2      98.5      98.3      56.5    0.000     0.000     0.000     0.000     0.000    2.28     0.00    0.00      0   -9.90   -9.00        4.9       11.7       11.7       11.7       11.7       11.7       11.7       11.7       11.7       11.7       11.7       11.7        0.0        0.0        0.0        0.0        0.0        0.0        0.0        0.0        0.0        0.0        0.0        0.0      0.0       0.3      20.4      24.1      27.9    424.57
    26    12  2025    -9     0     261.8     0.0      0.0    0.0    0.0    0.0      0.0      0.0   -9.90      0.3      0.1     38      0.0      0.0   100      0.3     0.1      38     15.8    2.28     -9     -9     -9      0     -9     0.0     0.0      0    -9.00      0.0      0.0      0.0   100    35.1    20.220    48.0    9.706   10.784     100       57.52    0.000    0.000     261.8    261.8    2.28   259.8     965.7     266.5     199.2      98.4      98.3      56.5    0.000     0.000     0.000     0.000     0.000    2.28     0.00    0.00      0   -9.90   -9.00        4.8       11.7       11.7       11.7       11.7       11.7       11.7       11.7       11.7       11.7       11.7       11.7        0.0        0.0        0.0        0.0        0.0        0.0        0.0        0.0        0.0        0.0        0.0        0.0      0.0       0.2      20.4      23.8      27.1    424.57
    27    12  2025    -9     0     261.7     0.0      0.0    0.0    0.0    0.0      0.0      0.0   -9.90      0.3      0.1     41      0.0      0.0   100      0.3     0.1      41     15.3    2.28     -9     -9     -9      0     -9     0.0     0.0      0    -9.00      0.0      0.0      0.0   100    35.1    20.220    48.0    9.706   10.784     100       57.52    0.000    0.000     261.7    261.7    2.28   259.7     965.7     266.5     199.2      98.5      98.3      56.5    0.000     0.000     0.000     0.000     0.000    2.28     0.00    0.00      0   -9.90   -9.00        4.7       11.7       11.7       11.7       11.7       11.7       11.7       11.7       11.7       11.7       11.7       11.7        0.0        0.0        0.0        0.0        0.0        0.0        0.0        0.0        0.0        0.0        0.0        0.0      0.0       0.3      19.6      23.3      27.0    424.57
    28    12  2025    -9     0     261.6     0.0      0.0    0.0    0.0    0.0      0.0      0.0   -9.90      0.3      0.1     35      0.0      0.0   100      0.3     0.1      35     15.9    2.28     -9     -9     -9      0     -9     0.0     0.0      0    -9.00      0.0      0.0      0.0   100    35.1    20.220    48.0    9.706   10.784     100       57.52    0.000    0.000     261.6    261.6    2.28   259.6     965.7     266.5     199.2      98.6      98.3      56.5    0.000     0.000     0.000     0.000     0.000    2.28     0.00    0.00      0   -9.90   -9.00        4.6       11.7       11.7       11.7       11.7       11.7       11.7       11.7       11.7       11.7       11.7       11.7        0.0        0.0        0.0        0.0        0.0        0.0        0.0        0.0        0.0        0.0        0.0        0.0      0.0       0.3      20.0      23.9      27.9    424.57
    29    12  2025    -9     0     261.5     0.0      0.0    0.0    0.0    0.0      0.0      0.0   -9.90      0.3      0.1     34      0.0      0.0   100      0.3     0.1      34     17.1    2.28     -9     -9     -9      0     -9     0.0     0.0      0    -9.00      0.0      0.0      0.0   100    35.1    20.220    48.0    9.706   10.784     100       57.52    0.000    0.000     261.5    261.5    2.28   259.4     965.7     266.5     199.2      98.6      98.3      56.5    0.000     0.000     0.000     0.000     0.000    2.28     0.00    0.00      0   -9.90   -9.00        4.5       11.7       11.7       11.7       11.7       11.7       11.7       11.7       11.7       11.7       11.7       11.7        0.0        0.0        0.0        0.0        0.0        0.0        0.0        0.0        0.0        0.0        0.0        0.0      0.0       0.3      20.9      25.1      29.3    424.57
    30    12  2025    -9     0     261.4     0.0      0.0    0.0    0.0    0.0      0.0      0.0   -9.90      0.3      0.1     32      0.0      0.0   100      0.3     0.1      32     17.6    2.28     -9     -9     -9      0     -9     0.0     0.0      0    -9.00      0.0      0.0      0.0   100    35.1    20.220    48.0    9.706   10.784     100       57.52    0.000    0.000     261.4    261.4    2.28   259.3     965.7     266.5     199.2      98.6      98.3      56.5    0.000     0.000     0.000     0.000     0.000    2.28     0.00    0.00      0   -9.90   -9.00        4.4       11.7       11.7       11.7       11.7       11.7       11.7       11.7       11.7       11.7       11.7       11.7        0.0        0.0        0.0        0.0        0.0        0.0        0.0        0.0        0.0        0.0        0.0        0.0      0.0       0.3      21.5      25.6      29.6    424.57
    31    12  2025    -9     0     261.3     0.0      0.0    0.0    0.0    0.0      0.0      0.0   -9.90      0.3      0.1     31      0.0      0.0   100      0.3     0.1      31     17.7    2.28     -9     -9     -9      0     -9     0.0     0.0      0    -9.00      0.0      0.0      0.0   100    35.1    20.220    48.0    9.706   10.784     100       57.52    0.000    0.000     261.3    261.3    2.28   259.2     965.7     266.5     199.2      98.7      98.3      56.5    0.000     0.000     0.000     0.000     0.000    2.28     0.00    0.00      0   -9.90   -9.00        4.3       11.7       11.7       11.7       11.7       11.7       11.7       11.7       11.7       11.7       11.7       11.7        0.0        0.0        0.0        0.0        0.0        0.0        0.0        0.0        0.0        0.0        0.0        0.0      0.0       0.3      21.5      25.8      30.1    424.57
