AquaCrop 7.1 (August 2023) - Output created on (date) : 16-01-2026   at (time) : 12:17:33

    RunNr     Day1   Month1    Year1     Rain      ETo       GD     CO2      Irri   Infilt   Runoff    Drain   Upflow        E     E/Ex       Tr      TrW   Tr/Trx    SaltIn   SaltOut    SaltUp  SaltProf     Cycle   SaltStr  FertStr  WeedStr  TempStr   ExpStr   StoStr  BioMass  Brelative   HI    Y(dry)  Y(fresh)    WPet      Bin     Bout     DayN   MonthN    YearN
                                           mm       mm  degC.day    ppm        mm       mm       mm       mm       mm       mm        %       mm       mm        %    ton/ha    ton/ha    ton/ha    ton/ha      days       %        %        %        %        %        %    ton/ha        %       %    ton/ha   ton/ha    kg/m3   ton/ha   ton/ha
   Tot(1)        1        7     2011   1188.8   2454.2   3127.6   391.85    510.9   1182.0      6.7      0.0      0.0    919.8       52    823.0    823.0      100     0.000     0.000     0.000     0.000       89        0       30        0        0        1        0    19.673       98     48.1    9.472   10.524     0.82    0.000    0.000       31       12     2011  cluster_449.PRM
   Tot(2)        1        7     2012   1182.4   2444.5   3128.9   394.06    473.4   1178.9      3.5      0.0      0.0    882.1       50    820.2    820.2      100     0.000     0.000     0.000     0.000       89        0       30        0        0        1        0    19.610       98     48.2    9.447   10.497     0.83    0.000    0.000       31       12     2012  cluster_449.PRM
   Tot(3)        1        7     2013   1136.0   2437.2   3125.8   396.74    464.5   1131.3      4.7      0.0      0.0    825.4       47    814.8    814.8      100     0.000     0.000     0.000     0.000       89        0       30        0        0        1        0    19.711       98     48.2    9.496   10.551     0.84    0.000    0.000       31       12     2013  cluster_449.PRM
   Tot(4)        1        7     2014   1112.8   2447.2   3133.7   398.81    492.2   1104.4      8.5      0.0      0.0    821.5       47    824.3    824.3      100     0.000     0.000     0.000     0.000       89        0       30        0        0        0        0    19.937       99     48.2    9.605   10.672     0.84    0.000    0.000       31       12     2014  cluster_449.PRM
   Tot(5)        1        7     2015   1021.0   2458.0   3115.0   401.01    609.2   1019.0      1.9      0.0      0.0    869.2       49    817.8    817.8      100     0.000     0.000     0.000     0.000       89        0       30        0        0        2        0    19.624       98     48.2    9.454   10.504     0.82    0.000    0.000       31       12     2015  cluster_449.PRM
