AquaCrop 7.1 (August 2023) - Output created on (date) : 16-01-2026   at (time) : 12:17:33

   Run:   1
   Day Month  Year   DAP Stage   WC(2.30)   Rain     Irri   Surf   Infilt   RO    Drain       CR    Zgwt       Ex       E     E/Ex     Trx       Tr  Tr/Trx    ETx      ET  ET/ETx      GD       Z     StExp  StSto  StSen StSalt StWeed   CC      CCw     StTr  Kc(Tr)     Trx       Tr      TrW  Tr/Trx   WP    Biomass     HI    Y(dry)  Y(fresh)  Brelative    WPet      Bin     Bout  WC(2.30) Wr(2.30)     Z       Wr    Wr(SAT)    Wr(FC)   Wr(exp)   Wr(sto)   Wr(sen)   Wr(PWP)    SaltIn    SaltOut   SaltUp   Salt(2.30)  SaltZ     Z       ECe    ECsw   StSalt  Zgwt    ECgw       WC01       WC 2       WC 3       WC 4       WC 5       WC 6       WC 7       WC 8       WC 9       WC10       WC11       WC12      ECe01      ECe 2      ECe 3      ECe 4      ECe 5      ECe 6      ECe 7      ECe 8      ECe 9      ECe10      ECe11      ECe12     Rain       ETo      Tmin      Tavg      Tmax      CO2
                                      mm      mm       mm     mm     mm     mm       mm       mm      m        mm       mm     %        mm       mm    %        mm      mm       %  degC-day     m       %      %      %      %      %      %       %       %       -        mm       mm       mm    %     g/m2    ton/ha      %    ton/ha   ton/ha       %       kg/m3   ton/ha   ton/ha      mm       mm       m       mm        mm        mm        mm        mm        mm         mm    ton/ha    ton/ha    ton/ha    ton/ha    ton/ha     m      dS/m    dS/m      %     m      dS/m       0.05       0.18       0.33       0.48       0.63       0.80       1.00       1.20       1.43       1.68       1.93       2.18       0.05       0.18       0.33       0.48       0.63       0.80       1.00       1.20       1.43       1.68       1.93       2.18       mm        mm     degC      degC      degC       ppm
     1     7  2011     1     1     262.4     0.3      0.0    0.0    0.3    0.0      0.0      0.0   -9.90     15.2      6.5     42      0.0      0.0   100     15.2     6.5      42     17.4    0.30     -9     -9     -9      0     -9     0.0     0.0      0    -9.00      0.0      0.0      0.0   100     0.0     0.000    -9.9    0.000    0.000      -9        0.00    0.000    0.000     262.4    262.4    0.30    28.4     125.1      34.6      30.7      21.1      15.5       6.9    0.000     0.000     0.000     0.000     0.000    0.30     0.00    0.00      0   -9.90   -9.00        5.4       11.7       11.7       11.7       11.7       11.7       11.7       11.7       11.7       11.7       11.7       11.7        0.0        0.0        0.0        0.0        0.0        0.0        0.0        0.0        0.0        0.0        0.0        0.0      0.3      13.8      20.9      27.2      33.5    391.85
     2     7  2011     2     1     263.8    11.0      0.0    0.0   11.0    0.0      0.0      0.0   -9.90     16.0      9.5     60      0.0      0.0   100     16.0     9.5      60     17.6    0.30     -9     -9     -9      0     -9     0.0     0.0      0    -9.00      0.0      0.0      0.0   100     0.0     0.000    -9.9    0.000    0.000      -9        0.00    0.000    0.000     263.8    263.8    0.30    29.8     125.1      34.6      30.7      21.6      15.5       6.9    0.000     0.000     0.000     0.000     0.000    0.30     0.00    0.00      0   -9.90   -9.00        6.9       11.7       11.7       11.7       11.7       11.7       11.7       11.7       11.7       11.7       11.7       11.7        0.0        0.0        0.0        0.0        0.0        0.0        0.0        0.0        0.0        0.0        0.0        0.0     11.0      14.5      21.1      27.8      34.6    391.85
     3     7  2011     3     1     261.0     6.4      0.0    0.0    6.4    0.0      0.0      0.0   -9.90     16.3      9.2     57      0.0      0.0   100     16.3     9.2      57     17.4    0.30     -9     -9     -9      0     -9     0.0     0.0      0    -9.00      0.0      0.0      0.0   100     0.0     0.000    -9.9    0.000    0.000      -9        0.00    0.000    0.000     261.0    261.0    0.30    27.0     125.1      34.6      30.7      21.8      15.5       6.9    0.000     0.000     0.000     0.000     0.000    0.30     0.00    0.00      0   -9.90   -9.00        4.0       11.7       11.7       11.7       11.7       11.7       11.7       11.7       11.7       11.7       11.7       11.7        0.0        0.0        0.0        0.0        0.0        0.0        0.0        0.0        0.0        0.0        0.0        0.0      6.4      14.8      20.7      27.8      34.8    391.85
     4     7  2011     4     1     259.0     3.2      0.0    0.0    3.2    0.0      0.0      0.0   -9.90     14.0      5.2     37      0.0      0.0   100     14.0     5.2      37     18.1    0.30     -9     -9     -9      0     -9     0.0     0.0      0    -9.00      0.0      0.0      0.0   100     0.0     0.000    -9.9    0.000    0.000      -9        0.00    0.000    0.000     259.0    259.0    0.30    25.0     125.1      34.6      30.7      20.4      15.5       6.9    0.000     0.000     0.000     0.000     0.000    0.30     0.00    0.00      0   -9.90   -9.00        1.9       11.7       11.7       11.7       11.7       11.7       11.7       11.7       11.7       11.7       11.7       11.7        0.0        0.0        0.0        0.0        0.0        0.0        0.0        0.0        0.0        0.0        0.0        0.0      3.2      12.7      22.2      27.5      32.7    391.85
     5     7  2011     5     1     257.5     1.5      0.0    0.0    1.5    0.0      0.0      0.0   -9.90     16.1      3.0     18      0.0      0.0   100     16.1     3.0      18     17.3    0.32     -9     -9     -9      0     -9     0.0     0.0      0    -9.00      0.0      0.0      0.0   100     0.0     0.000    -9.9    0.000    0.000      -9        0.00    0.000    0.000     257.5    257.5    0.32    25.9     133.5      36.9      32.8      23.1      16.5       7.4    0.000     0.000     0.000     0.000     0.000    0.32     0.00    0.00      0   -9.90   -9.00        1.2       11.2       11.7       11.7       11.7       11.7       11.7       11.7       11.7       11.7       11.7       11.7        0.0        0.0        0.0        0.0        0.0        0.0        0.0        0.0        0.0        0.0        0.0        0.0      1.5      14.7      20.6      27.6      34.5    391.85
     6     7  2011     6     1     257.9     6.0      0.0    0.0    6.0    0.0      0.0      0.0   -9.90     16.2      5.7     35      0.0      0.0   100     16.2     5.7      35     17.2    0.36     -9     -9     -9      0     -9     0.0     0.0      0    -9.00      0.0      0.0      0.0   100     0.0     0.000    -9.9    0.000    0.000      -9        0.00    0.000    0.000     257.9    257.9    0.36    30.9     150.6      41.6      37.0      26.2      18.7       8.4    0.000     0.000     0.000     0.000     0.000    0.36     0.00    0.00      0   -9.90   -9.00        1.5       11.2       11.7       11.7       11.7       11.7       11.7       11.7       11.7       11.7       11.7       11.7        0.0        0.0        0.0        0.0        0.0        0.0        0.0        0.0        0.0        0.0        0.0        0.0      6.0      14.7      20.4      27.5      34.5    391.85
     7     7  2011     7     2     260.6     8.1      2.0    0.0    8.1    0.0      0.0      0.0   -9.90     17.4      7.3     42      0.1      0.1   100     17.6     7.4      42     16.6    0.40     -9      0      0      0      0     0.4     0.4      0     0.01      0.1      0.1      0.1   100    34.3     0.003    -9.9    0.000    0.000     100        0.00    0.000    0.000     260.6    260.6    0.40    38.0     166.4      46.0      46.0      30.0      30.0       9.3    0.000     0.000     0.000     0.000     0.000    0.40     0.00    0.00      0   -9.90   -9.00        9.7        9.7        9.7       11.7       11.7       11.7       11.7       11.7       11.7       11.7       11.7       11.7        0.0        0.0        0.0        0.0        0.0        0.0        0.0        0.0        0.0        0.0        0.0        0.0      8.1      16.0      19.2      27.5      35.8    391.85
     8     7  2011     8     2     259.1     1.2      4.1    0.0    1.2    0.0      0.0      0.0   -9.90     15.6      6.6     42      0.1      0.1   100     15.7     6.7      43     17.1    0.43     -9      0      0      0      0     0.5     0.5      0     0.01      0.1      0.1      0.1   100    34.3     0.006    -9.9    0.000    0.000     100        0.00    0.000    0.000     259.1    259.1    0.43    41.2     181.2      50.1      50.1      31.2      31.2      10.2    0.000     0.000     0.000     0.000     0.000    0.43     0.00    0.00      0   -9.90   -9.00        9.5        9.5        9.5       11.2       11.7       11.7       11.7       11.7       11.7       11.7       11.7       11.7        0.0        0.0        0.0        0.0        0.0        0.0        0.0        0.0        0.0        0.0        0.0        0.0      1.2      14.3      20.1      26.9      33.8    391.85
     9     7  2011     9     2     258.5     9.4      0.0    0.0    9.4    0.0      0.0      0.0   -9.90     15.6      9.8     63      0.2      0.2   100     15.7    10.0      64     17.4    0.47      0      0      0      0      0     0.6     0.6      0     0.01      0.2      0.2      0.2   100    34.3     0.010    -9.9    0.000    0.000     100        0.00    0.000    0.000     258.5    258.5    0.47    44.4     195.4      54.0      54.0      33.6      33.6      11.0    0.000     0.000     0.000     0.000     0.000    0.47     0.00    0.00      0   -9.90   -9.00        8.9        9.5        9.5       11.2       11.7       11.7       11.7       11.7       11.7       11.7       11.7       11.7        0.0        0.0        0.0        0.0        0.0        0.0        0.0        0.0        0.0        0.0        0.0        0.0      9.4      14.3      20.7      27.4      34.0    391.85
    10     7  2011    10     2     257.8     8.7      0.0    0.0    8.7    0.0      0.0      0.0   -9.90     14.7      9.2     63      0.2      0.2   100     14.9     9.4      63     16.9    0.50      0      0      0      0      0     0.7     0.7      0     0.01      0.2      0.2      0.2   100    34.3     0.014    -9.9    0.000    0.000     100        0.00    0.000    0.000     257.8    257.8    0.50    47.3     209.1      57.8      57.8      35.2      35.2      11.9    0.000     0.000     0.000     0.000     0.000    0.50     0.00    0.00      0   -9.90   -9.00        8.1        9.5        9.5       11.2       11.7       11.7       11.7       11.7       11.7       11.7       11.7       11.7        0.0        0.0        0.0        0.0        0.0        0.0        0.0        0.0        0.0        0.0        0.0        0.0      8.7      13.5      19.8      26.1      32.5    391.85
    11     7  2011    11     2     257.0     5.3      3.1    0.0    5.3    0.0      0.0      0.0   -9.90     15.7      9.0     57      0.2      0.2   100     16.0     9.2      58     17.8    0.53      0      0      0      0      0     0.8     0.8      0     0.02      0.2      0.2      0.2   100    34.3     0.019    -9.9    0.000    0.000     100        0.00    0.000    0.000     257.0    257.0    0.53    50.3     222.3      61.4      61.4      38.5      38.5      12.6    0.000     0.000     0.000     0.000     0.000    0.53     0.00    0.00      0   -9.90   -9.00        9.5        9.5        9.5        9.8       11.7       11.7       11.7       11.7       11.7       11.7       11.7       11.7        0.0        0.0        0.0        0.0        0.0        0.0        0.0        0.0        0.0        0.0        0.0        0.0      5.3      14.5      21.7      28.3      34.9    391.85
    12     7  2011    12     2     268.1    24.3      0.0    0.0   23.0    1.2      0.0      0.0   -9.90     16.7     11.7     70      0.3      0.3   100     17.0    12.0      70     16.5    0.56      0      0      0      0      0     1.0     1.0      0     0.02      0.3      0.3      0.3   100    34.3     0.025    -9.9    0.000    0.000     100        0.00    0.000    0.000     268.1    268.1    0.56    64.5     235.2      65.0      65.0      41.9      41.9      13.4    0.000     0.000     0.000     0.000     0.000    0.56     0.00    0.00      0   -9.90   -9.00       20.8        9.5        9.5        9.8       11.7       11.7       11.7       11.7       11.7       11.7       11.7       11.7        0.0        0.0        0.0        0.0        0.0        0.0        0.0        0.0        0.0        0.0        0.0        0.0     24.3      15.5      19.1      27.0      34.9    391.85
    13     7  2011    13     2     262.3     4.2      0.0    0.0    4.2    0.0      0.0      0.0   -9.90     16.0      9.7     61      0.3      0.3   100     16.3    10.0      62     16.3    0.59      0      0      0      0      0     1.2     1.2      0     0.02      0.3      0.3      0.3   100    34.3     0.032    -9.9    0.000    0.000     100        0.00    0.000    0.000     262.3    262.3    0.59    62.1     247.7      68.4      68.4      43.3      43.3      14.1    0.000     0.000     0.000     0.000     0.000    0.59     0.00    0.00      0   -9.90   -9.00        6.4       12.1       12.0       10.3       11.7       11.7       11.7       11.7       11.7       11.7       11.7       11.7        0.0        0.0        0.0        0.0        0.0        0.0        0.0        0.0        0.0        0.0        0.0        0.0      4.2      14.8      18.6      26.1      33.7    391.85
    14     7  2011    14     2     258.6     4.8      0.0    0.0    4.8    0.0      0.0      0.0   -9.90     14.8      8.2     55      0.3      0.3   100     15.1     8.5      56     17.0    0.62      1      0      0      0      0     1.4     1.4      0     0.02      0.3      0.3      0.3   100    34.3     0.041    -9.9    0.000    0.000     100        0.00    0.000    0.000     258.6    258.6    0.62    61.8     259.9      71.8      71.8      44.1      44.1      14.8    0.000     0.000     0.000     0.000     0.000    0.62     0.00    0.00      0   -9.90   -9.00        2.6       11.8       11.8       10.9       11.7       11.7       11.7       11.7       11.7       11.7       11.7       11.7        0.0        0.0        0.0        0.0        0.0        0.0        0.0        0.0        0.0        0.0        0.0        0.0      4.8      13.8      20.0      26.4      32.9    391.85
    15     7  2011    15     2     256.5     1.6      0.0    0.0    1.6    0.0      0.0      0.0   -9.90     15.5      3.2     21      0.4      0.4   100     15.9     3.6      23     18.4    0.65      7      0      0      0      0     1.6     1.6      0     0.03      0.4      0.4      0.4   100    34.3     0.051    -9.9    0.000    0.000     100        0.00    0.000    0.000     256.5    256.5    0.65    63.0     271.9      75.1      75.1      47.1      47.1      15.6    0.000     0.000     0.000     0.000     0.000    0.65     0.00    0.00      0   -9.90   -9.00        0.7       11.5       11.7       11.0       11.7       11.7       11.7       11.7       11.7       11.7       11.7       11.7        0.0        0.0        0.0        0.0        0.0        0.0        0.0        0.0        0.0        0.0        0.0        0.0      1.6      14.5      22.7      29.1      35.5    391.85
    16     7  2011    16     2     255.0     2.8      0.0    0.0    2.8    0.0      0.0      0.0   -9.90     15.4      3.8     25      0.5      0.5   100     15.9     4.3      27     16.6    0.67      8      0      0      0      0     1.9     1.9      0     0.03      0.5      0.5      0.5   100    34.3     0.062    -9.9    0.000    0.000      99        0.00    0.000    0.000     255.0    255.0    0.67    64.7     283.6      78.3      78.3      49.1      49.1      16.2    0.000     0.000     0.000     0.000     0.000    0.67     0.00    0.00      0   -9.90   -9.00        0.7       10.6       11.7       11.0       11.7       11.7       11.7       11.7       11.7       11.7       11.7       11.7        0.0        0.0        0.0        0.0        0.0        0.0        0.0        0.0        0.0        0.0        0.0        0.0      2.8      14.4      19.2      26.3      33.5    391.85
    17     7  2011    17     2     253.9     3.8      0.3    0.0    3.8    0.0      0.0      0.0   -9.90     16.0      4.6     29      0.6      0.6   100     16.6     5.2      31     16.4    0.70      8      0      0      0      0     2.2     2.2      0     0.04      0.6      0.6      0.6   100    34.3     0.075    -9.9    0.000    0.000      99        0.00    0.000    0.000     253.9    253.9    0.70    66.8     295.2      81.5      81.5      52.1      52.1      16.9    0.000     0.000     0.000     0.000     0.000    0.70     0.00    0.00      0   -9.90   -9.00        9.6        9.6        9.6        9.6        9.6       11.7       11.7       11.7       11.7       11.7       11.7       11.7        0.0        0.0        0.0        0.0        0.0        0.0        0.0        0.0        0.0        0.0        0.0        0.0      3.8      15.1      18.8      26.5      34.2    391.85
    18     7  2011    18     2     252.3     6.4      1.6    0.0    6.4    0.0      0.0      0.0   -9.90     14.6      8.9     61      0.6      0.6   100     15.3     9.6      63     17.4    0.73      0      0      0      0      0     2.6     2.6      0     0.05      0.6      0.6      0.6   100    34.3     0.091    -9.9    0.000    0.000      98        0.00    0.000    0.000     252.3    252.3    0.73    69.0     306.5      84.6      84.6      52.2      52.2      17.6    0.000     0.000     0.000     0.000     0.000    0.73     0.00    0.00      0   -9.90   -9.00        9.4        9.4        9.5        9.5        9.5       11.4       11.7       11.7       11.7       11.7       11.7       11.7        0.0        0.0        0.0        0.0        0.0        0.0        0.0        0.0        0.0        0.0        0.0        0.0      6.4      13.9      20.9      27.2      33.5    391.85
    19     7  2011    19     2     252.4    10.6      0.0    0.0   10.6    0.0      0.0      0.0   -9.90     15.3      9.7     64      0.8      0.8   100     16.1    10.5      65     17.1    0.75      0      0      0      0      0     3.0     3.0      0     0.05      0.8      0.8      0.8   100    34.3     0.109    -9.9    0.000    0.000      98        0.00    0.000    0.000     252.4    252.4    0.75    72.1     317.7      87.7      87.7      55.3      55.3      18.3    0.000     0.000     0.000     0.000     0.000    0.75     0.00    0.00      0   -9.90   -9.00        9.5        9.4        9.5        9.5        9.5       11.4       11.7       11.7       11.7       11.7       11.7       11.7        0.0        0.0        0.0        0.0        0.0        0.0        0.0        0.0        0.0        0.0        0.0        0.0     10.6      14.6      20.2      27.2      34.2    391.85
    20     7  2011    20     2     251.4     8.4      1.1    0.0    8.4    0.0      0.0      0.0   -9.90     15.1      9.6     63      0.9      0.9   100     16.1    10.5      65     17.2    0.78      0      0      0      0      0     3.6     3.6      0     0.06      0.9      0.9      0.9   100    34.3     0.131    -9.9    0.000    0.000      98        0.00    0.000    0.000     251.4    251.4    0.78    74.9     328.7      90.8      90.8      57.2      57.2      18.9    0.000     0.000     0.000     0.000     0.000    0.78     0.00    0.00      0   -9.90   -9.00        9.5        9.5        9.6        9.6        9.6       10.6       11.7       11.7       11.7       11.7       11.7       11.7        0.0        0.0        0.0        0.0        0.0        0.0        0.0        0.0        0.0        0.0        0.0        0.0      8.4      14.7      20.4      27.4      34.3    391.85
    21     7  2011    21     2     250.0     5.9      2.8    0.0    5.9    0.0      0.0      0.0   -9.90     14.7      9.1     62      1.1      1.1   100     15.7    10.1      64     17.5    0.81      0      0      0      0      0     4.2     4.2      0     0.07      1.1      1.1      1.1   100    34.3     0.156    -9.9    0.000    0.000      97        0.00    0.000    0.000     250.0    250.0    0.81    76.8     339.6      93.8      93.8      58.7      58.7      19.5    0.000     0.000     0.000     0.000     0.000    0.81     0.00    0.00      0   -9.90   -9.00        9.5        9.5        9.5        9.5        9.5       10.1       11.7       11.7       11.7       11.7       11.7       11.7        0.0        0.0        0.0        0.0        0.0        0.0        0.0        0.0        0.0        0.0        0.0        0.0      5.9      14.4      20.9      27.6      34.2    391.85
    22     7  2011    22     2     249.0     9.4      0.0    0.0    9.4    0.0      0.0      0.0   -9.90     13.6      9.3     68      1.2      1.2   100     14.8    10.4      71     17.4    0.83      0      0      0      0      0     5.0     5.0      0     0.09      1.2      1.2      1.2   100    34.3     0.186    -9.9    0.000    0.000      97        0.00    0.000    0.000     249.0    249.0    0.83    78.3     350.3      96.7      96.7      59.0      59.0      20.2    0.000     0.000     0.000     0.000     0.000    0.83     0.00    0.00      0   -9.90   -9.00        8.4        9.5        9.5        9.5        9.5       10.1       11.7       11.7       11.7       11.7       11.7       11.7        0.0        0.0        0.0        0.0        0.0        0.0        0.0        0.0        0.0        0.0        0.0        0.0      9.4      13.5      20.7      26.8      32.8    391.85
    23     7  2011    23     2     248.9     1.4      5.8    0.0    1.4    0.0      0.0      0.0   -9.90     13.9      6.0     43      1.4      1.4   100     15.3     7.4      48     17.1    0.86     11      0      0      0      0     5.8     5.8      0     0.10      1.4      1.4      1.4   100    34.3     0.220    -9.9    0.000    0.000      97        0.00    0.000    0.000     248.9    248.9    0.86    80.8     360.9      99.7      99.7      61.6      61.6      20.8    0.000     0.000     0.000     0.000     0.000    0.86     0.00    0.00      0   -9.90   -9.00        9.4        9.4        9.5        9.5        9.5        9.6       11.7       11.7       11.7       11.7       11.7       11.7        0.0        0.0        0.0        0.0        0.0        0.0        0.0        0.0        0.0        0.0        0.0        0.0      1.4      14.0      20.2      26.7      33.3    391.85
    24     7  2011    24     2     250.3    10.9      2.4    0.0   10.9    0.0      0.0      0.0   -9.90     15.4      9.9     65      1.8      1.8   100     17.2    11.8      68     17.3    0.88      0      0      0      0      0     6.8     6.8      0     0.12      1.8      1.8      1.8   100    34.3     0.261    -9.9    0.000    0.000      96        0.00    0.000    0.000     250.3    250.3    0.88    84.7     371.4     102.5     102.5      66.8      66.8      21.4    0.000     0.000     0.000     0.000     0.000    0.88     0.00    0.00      0   -9.90   -9.00        9.6        9.6        9.7        9.7        9.7        9.7       11.7       11.7       11.7       11.7       11.7       11.7        0.0        0.0        0.0        0.0        0.0        0.0        0.0        0.0        0.0        0.0        0.0        0.0     10.9      15.8      20.5      28.3      36.0    391.85
    25     7  2011    25     2     249.8     8.2      2.8    0.0    8.2    0.0      0.0      0.0   -9.90     14.6      9.4     65      2.1      2.1   100     16.7    11.5      69     17.5    0.91      0      0      0      0      0     8.0     8.0      0     0.14      2.1      2.1      2.1   100    34.3     0.308    -9.9    0.000    0.000      96        0.00    0.000    0.000     249.8    249.8    0.91    86.7     381.7     105.4     105.4      67.7      67.7      22.0    0.000     0.000     0.000     0.000     0.000    0.91     0.00    0.00      0   -9.90   -9.00        9.6        9.6        9.6        9.6        9.6        9.6       11.6       11.7       11.7       11.7       11.7       11.7        0.0        0.0        0.0        0.0        0.0        0.0        0.0        0.0        0.0        0.0        0.0        0.0      8.2      15.3      20.9      28.2      35.5    391.85
    26     7  2011    26     2     248.6     1.2      6.2    0.0    1.2    0.0      0.0      0.0   -9.90     13.7      6.1     45      2.4      2.4   100     16.1     8.5      53     17.1    0.93      5      0      0      0      0     9.4     9.4      0     0.16      2.4      2.4      2.4   100    34.3     0.362    -9.9    0.000    0.000      96        0.00    0.000    0.000     248.6    248.6    0.93    88.9     392.0     108.2     108.2      68.5      68.5      22.6    0.000     0.000     0.000     0.000     0.000    0.93     0.00    0.00      0   -9.90   -9.00        9.5        9.5        9.6        9.6        9.6        9.6       11.3       11.7       11.7       11.7       11.7       11.7        0.0        0.0        0.0        0.0        0.0        0.0        0.0        0.0        0.0        0.0        0.0        0.0      1.2      14.7      20.1      27.2      34.3    391.85
    27     7  2011    27     2     250.2    13.2      0.0    0.0   13.1    0.1      0.0      0.0   -9.90     12.1      9.0     74      2.5      2.5   100     14.6    11.5      79     17.1    0.95      0      0      0      0      0    11.1    11.1      0     0.19      2.5      2.5      2.5   100    34.3     0.426    -9.9    0.000    0.000      96        0.00    0.000    0.000     250.2    250.2    0.95    93.2     402.2     111.0     111.0      67.5      67.5      23.2    0.000     0.000     0.000     0.000     0.000    0.95     0.00    0.00      0   -9.90   -9.00       11.1        9.5        9.6        9.6        9.6        9.6       11.3       11.7       11.7       11.7       11.7       11.7        0.0        0.0        0.0        0.0        0.0        0.0        0.0        0.0        0.0        0.0        0.0        0.0     13.2      13.4      20.3      26.4      32.5    391.85
    28     7  2011    28     2     246.7     0.8      4.6    0.0    0.8    0.0      0.0      0.0   -9.90     12.4      5.8     47      3.1      3.1   100     15.4     8.9      58     17.2    0.98      0      0      0      0      0    13.1    13.1      0     0.22      3.1      3.1      3.1   100    34.3     0.501    -9.9    0.000    0.000      95        0.00    0.000    0.000     246.7    246.7    0.98    93.2     412.2     113.8     113.8      70.8      70.8      23.8    0.000     0.000     0.000     0.000     0.000    0.98     0.00    0.00      0   -9.90   -9.00        9.5        9.5        9.5        9.5        9.5        9.5       10.6       11.7       11.7       11.7       11.7       11.7        0.0        0.0        0.0        0.0        0.0        0.0        0.0        0.0        0.0        0.0        0.0        0.0      0.8      14.2      20.4      27.1      33.7    391.85
    29     7  2011    29     2     245.4     7.4      3.3    0.0    7.4    0.0      0.0      0.0   -9.90     11.7      8.3     71      3.5      3.5   100     15.3    11.9      78     17.3    1.00      0      0      0      0      0    15.4    15.4      0     0.25      3.5      3.5      3.5   100    34.3     0.588    -9.9    0.000    0.000      95        0.00    0.000    0.000     245.4    245.4    1.00    95.0     422.2     116.6     116.6      72.3      72.3      24.4    0.000     0.000     0.000     0.000     0.000    1.00     0.00    0.00      0   -9.90   -9.00        9.4        9.4        9.5        9.5        9.5        9.5       10.1       11.7       11.7       11.7       11.7       11.7        0.0        0.0        0.0        0.0        0.0        0.0        0.0        0.0        0.0        0.0        0.0        0.0      7.4      14.0      20.5      27.0      33.5    391.85
    30     7  2011    30     2     245.8     5.8      7.2    0.0    5.8    0.0      0.0      0.0   -9.90     11.9      8.1     69      4.4      4.4   100     16.3    12.6      77     16.9    1.02      0      0      0      0      0    18.2    18.2      0     0.29      4.4      4.4      4.4   100    34.3     0.688    -9.9    0.000    0.000      95        0.00    0.000    0.000     245.8    245.8    1.02    97.9     432.0     119.3     119.3      76.1      76.1      25.0    0.000     0.000     0.000     0.000     0.000    1.02     0.00    0.00      0   -9.90   -9.00        9.5        9.5        9.6        9.6        9.6        9.6        9.8       11.7       11.7       11.7       11.7       11.7        0.0        0.0        0.0        0.0        0.0        0.0        0.0        0.0        0.0        0.0        0.0        0.0      5.8      15.0      19.9      27.2      34.6    391.85
    31     7  2011    31     2     244.2     5.6      5.1    0.0    5.6    0.0      0.0      0.0   -9.90     10.3      7.6     74      4.7      4.7   100     15.0    12.3      82     17.5    1.05      0      0      0      0      0    21.4    21.4      0     0.34      4.7      4.7      4.7   100    34.3     0.805    -9.9    0.000    0.000      95        0.00    0.000    0.000     244.2    244.2    1.05    98.7     441.8     122.0     122.0      75.2      75.2      25.6    0.000     0.000     0.000     0.000     0.000    1.05     0.00    0.00      0   -9.90   -9.00        9.4        9.4        9.5        9.5        9.5        9.5        9.5       11.7       11.7       11.7       11.7       11.7        0.0        0.0        0.0        0.0        0.0        0.0        0.0        0.0        0.0        0.0        0.0        0.0      5.6      13.8      21.0      27.2      33.4    391.85
     1     8  2011    32     2     244.6     9.6      4.2    0.0    9.6    0.0      0.0      0.0   -9.90      9.9      7.7     78      5.6      5.6   100     15.5    13.3      86     16.6    1.07      0      0      0      0      0    25.3    25.3      0     0.39      5.6      5.6      5.6   100    34.3     0.939    -9.9    0.000    0.000      95        0.00    0.000    0.000     244.6    244.6    1.07   101.4     451.5     124.7     124.7      78.1      78.1      26.1    0.000     0.000     0.000     0.000     0.000    1.07     0.00    0.00      0   -9.90   -9.00        9.5        9.5        9.5        9.5        9.5        9.5        9.5       11.7       11.7       11.7       11.7       11.7        0.0        0.0        0.0        0.0        0.0        0.0        0.0        0.0        0.0        0.0        0.0        0.0      9.6      14.4      19.1      26.2      33.2    391.85
     2     8  2011    33     2     245.2     2.2     11.1    0.0    2.2    0.0      0.0      0.0   -9.90      9.3      6.0     65      6.7      6.7   100     16.0    12.7      79     16.3    1.09      0      0      0      0      0    29.8    29.8      0     0.45      6.7      6.7      6.7   100    34.3     1.094    -9.9    0.000    0.000      95        0.00    0.000    0.000     245.2    245.2    1.09   104.1     461.2     127.3     127.3      80.9      80.9      26.7    0.000     0.000     0.000     0.000     0.000    1.09     0.00    0.00      0   -9.90   -9.00        9.5        9.5        9.6        9.6        9.6        9.6        9.6       11.7       11.7       11.7       11.7       11.7        0.0        0.0        0.0        0.0        0.0        0.0        0.0        0.0        0.0        0.0        0.0        0.0      2.2      14.9      18.6      26.1      33.7    391.85
     3     8  2011    34     2     244.7     4.5      9.2    0.0    4.5    0.0      0.0      0.0   -9.90      8.2      6.6     81      7.6      7.6   100     15.8    14.2      90     17.5    1.12      0      0      0      0      0    35.1    35.1      0     0.52      7.6      7.6      7.6   100    34.3     1.270    -9.9    0.000    0.000      95        0.00    0.000    0.000     244.7    244.7    1.12   106.4     470.7     130.0     130.0      82.2      82.2      27.3    0.000     0.000     0.000     0.000     0.000    1.12     0.00    0.00      0   -9.90   -9.00        9.5        9.5        9.6        9.6        9.6        9.6        9.6       11.5       11.7       11.7       11.7       11.7        0.0        0.0        0.0        0.0        0.0        0.0        0.0        0.0        0.0        0.0        0.0        0.0      4.5      14.7      20.9      27.8      34.7    391.85
     4     8  2011    35     2     244.8     3.9     11.3    0.0    3.9    0.0      0.0      0.0   -9.90      7.4      6.2     83      9.0      9.0   100     16.4    15.2      92     16.9    1.14      0      0      0      0      0    41.4    41.4      0     0.59      9.0      9.0      9.0   100    34.3     1.472    -9.9    0.000    0.000      95        0.00    0.000    0.000     244.8    244.8    1.14   109.6     480.2     132.6     132.6      85.5      85.5      27.8    0.000     0.000     0.000     0.000     0.000    1.14     0.00    0.00      0   -9.90   -9.00        9.6        9.6        9.6        9.6        9.6        9.6        9.6       11.2       11.7       11.7       11.7       11.7        0.0        0.0        0.0        0.0        0.0        0.0        0.0        0.0        0.0        0.0        0.0        0.0      3.9      15.4      19.8      27.5      35.1    391.85
     5     8  2011    36     2     243.6     7.7      6.9    0.0    7.7    0.0      0.0      0.0   -9.90      6.1      5.7     95     10.1     10.1   100     16.2    15.8      98     16.6    1.16      0      0      0      0      0    48.8    48.8      0     0.66     10.1     10.1     10.1   100    34.3     1.699    -9.9    0.000    0.000      95        0.00    0.000    0.000     243.6    243.6    1.16   111.6     489.6     135.2     135.2      86.7      86.7      28.4    0.000     0.000     0.000     0.000     0.000    1.16     0.00    0.00      0   -9.90   -9.00        9.6        9.6        9.6        9.6        9.6        9.6        9.6       10.7       11.7       11.7       11.7       11.7        0.0        0.0        0.0        0.0        0.0        0.0        0.0        0.0        0.0        0.0        0.0        0.0      7.7      15.2      19.3      26.9      34.5    391.85
     6     8  2011    37     2     242.6     3.9     10.9    0.0    3.9    0.0      0.0      0.0   -9.90      5.0      4.8     97     11.1     11.1   100     16.0    15.8      99     17.2    1.18      0      0      0      0      0    55.9    55.9      0     0.73     11.1     11.1     11.1   100    34.3     1.950    -9.9    0.000    0.000      95        0.00    0.000    0.000     242.6    242.6    1.18   113.5     499.0     137.8     137.8      88.1      88.1      28.9    0.000     0.000     0.000     0.000     0.000    1.18     0.00    0.00      0   -9.90   -9.00        9.6        9.6        9.6        9.6        9.6        9.6        9.6       10.3       11.7       11.7       11.7       11.7        0.0        0.0        0.0        0.0        0.0        0.0        0.0        0.0        0.0        0.0        0.0        0.0      3.9      15.1      20.4      27.7      35.0    391.85
     7     8  2011    38     2     242.0     5.6      9.8    0.0    5.6    0.0      0.0      0.0   -9.90      4.1      4.1    100     11.9     11.9   100     16.0    16.0     100     17.0    1.20      0      0      0      0      0    61.9    61.9      0     0.79     11.9     11.9     11.9   100    34.3     2.220    -9.9    0.000    0.000      95        0.00    0.000    0.000     242.0    242.0    1.20   115.4     508.3     140.3     140.3      89.9      89.9      29.5    0.000     0.000     0.000     0.000     0.000    1.20     0.00    0.00      0   -9.90   -9.00        9.6        9.6        9.6        9.6        9.6        9.6        9.6        9.9       11.7       11.7       11.7       11.7        0.0        0.0        0.0        0.0        0.0        0.0        0.0        0.0        0.0        0.0        0.0        0.0      5.6      15.1      20.0      27.4      34.8    391.85
     8     8  2011    39     2     239.4     3.0      8.7    0.0    3.0    0.0      0.0      0.0   -9.90      3.1      3.1    100     11.2     11.2   100     14.2    14.2     100     17.5    1.23      0      0      0      0      0    67.0    67.0      0     0.83     11.2     11.2     11.2   100    34.3     2.504    -9.9    0.000    0.000      96        0.00    0.000    0.000     239.4    239.4    1.23   115.2     517.5     142.9     142.9      87.2      87.2      30.0    0.000     0.000     0.000     0.000     0.000    1.23     0.00    0.00      0   -9.90   -9.00        9.4        9.4        9.4        9.4        9.4        9.4        9.4        9.6       11.7       11.7       11.7       11.7        0.0        0.0        0.0        0.0        0.0        0.0        0.0        0.0        0.0        0.0        0.0        0.0      3.0      13.5      21.1      27.1      33.0    391.85
     9     8  2011    40     2     240.3    14.5      1.6    0.0   14.3    0.2      0.0      0.0   -9.90      2.7      2.7    100     12.4     12.4   100     15.1    15.1     100     17.5    1.25      0      0      0      0      0    71.3    71.3      0     0.86     12.4     12.4     12.4   100    34.3     2.799    -9.9    0.000    0.000      96        0.00    0.000    0.000     240.3    240.3    1.25   118.2     526.7     145.4     145.4      91.0      91.0      30.6    0.000     0.000     0.000     0.000     0.000    1.25     0.00    0.00      0   -9.90   -9.00        9.5        9.5        9.5        9.5        9.5        9.5        9.5        9.5       11.7       11.7       11.7       11.7        0.0        0.0        0.0        0.0        0.0        0.0        0.0        0.0        0.0        0.0        0.0        0.0     14.5      14.3      20.9      27.5      34.2    391.85
    10     8  2011    41     2     241.4     7.5      9.6    0.0    7.5    0.0      0.0      0.0   -9.90      2.4      2.4    100     13.5     13.5   100     16.0    16.0     100     17.9    1.27      0      0      0      0      0    74.9    74.9      0     0.89     13.5     13.5     13.5   100    34.3     3.105    -9.9    0.000    0.000      96        0.00    0.000    0.000     241.4    241.4    1.27   121.4     535.8     147.9     147.9      94.8      94.8      31.1    0.000     0.000     0.000     0.000     0.000    1.27     0.00    0.00      0   -9.90   -9.00        9.6        9.6        9.6        9.6        9.6        9.6        9.6        9.6       11.7       11.7       11.7       11.7        0.0        0.0        0.0        0.0        0.0        0.0        0.0        0.0        0.0        0.0        0.0        0.0      7.5      15.2      21.7      28.7      35.8    391.85
    11     8  2011    42     2     238.3     1.7      8.9    0.0    1.7    0.0      0.0      0.0   -9.90      1.8      1.8    100     11.8     11.8   100     13.6    13.6     100     16.9    1.29      2      0      0      0      0    77.9    77.9      0     0.91     11.8     11.8     11.8   100    34.3     3.418    -9.9    0.000    0.000      96        0.00    0.000    0.000     238.3    238.3    1.29   120.4     544.9     150.4     150.4      90.4      90.4      31.6    0.000     0.000     0.000     0.000     0.000    1.29     0.00    0.00      0   -9.90   -9.00        9.3        9.3        9.4        9.4        9.4        9.4        9.4        9.4       11.7       11.7       11.7       11.7        0.0        0.0        0.0        0.0        0.0        0.0        0.0        0.0        0.0        0.0        0.0        0.0      1.7      13.0      19.8      25.7      31.5    391.85
    12     8  2011    43     2     243.1     7.8     14.3    0.0    7.8    0.0      0.0      0.0   -9.90      1.9      1.9    100     15.4     15.4   100     17.4    17.4     100     17.2    1.31      0      0      0      0      0    80.6    80.6      0     0.93     15.4     15.4     15.4   100    34.3     3.738    -9.9    0.000    0.000      97        0.00    0.000    0.000     243.1    243.1    1.31   127.6     553.9     152.9     152.9     101.9     101.9      32.2    0.000     0.000     0.000     0.000     0.000    1.31     0.00    0.00      0   -9.90   -9.00        9.7        9.7        9.8        9.8        9.8        9.8        9.8        9.8       11.6       11.7       11.7       11.7        0.0        0.0        0.0        0.0        0.0        0.0        0.0        0.0        0.0        0.0        0.0        0.0      7.8      16.6      20.5      28.8      37.1    391.85
    13     8  2011    44     2     241.2     2.8     11.6    0.0    2.8    0.0      0.0      0.0   -9.90      1.6      1.6    100     14.8     14.8   100     16.4    16.4     100     16.9    1.33      0      0      0      0      0    82.8    82.8      0     0.95     14.8     14.8     14.8   100    34.3     4.063    -9.9    0.000    0.000      97        0.00    0.000    0.000     241.2    241.2    1.33   128.7     562.8     155.4     155.4     100.9     100.9      32.7    0.000     0.000     0.000     0.000     0.000    1.33     0.00    0.00      0   -9.90   -9.00        9.6        9.6        9.7        9.7        9.7        9.7        9.7        9.7       11.4       11.7       11.7       11.7        0.0        0.0        0.0        0.0        0.0        0.0        0.0        0.0        0.0        0.0        0.0        0.0      2.8      15.6      19.9      27.7      35.5    391.85
    14     8  2011    45     2     238.3     2.4      9.7    0.0    2.4    0.0      0.0      0.0   -9.90      1.2      1.2    100     13.7     13.7   100     15.0    15.0     100     17.1    1.35      0      0      0      0      0    84.7    84.7      0     0.96     13.7     13.7     13.7   100    34.3     4.393    -9.9    0.000    0.000      97        0.00    0.000    0.000     238.3    238.3    1.35   129.0     571.7     157.8     157.8      98.6      98.6      33.2    0.000     0.000     0.000     0.000     0.000    1.35     0.00    0.00      0   -9.90   -9.00        9.5        9.5        9.5        9.5        9.5        9.5        9.5        9.5       11.0       11.7       11.7       11.7        0.0        0.0        0.0        0.0        0.0        0.0        0.0        0.0        0.0        0.0        0.0        0.0      2.4      14.3      20.2      26.9      33.6    391.85
    15     8  2011    46     2     239.0     1.6     15.4    0.0    1.6    0.0      0.0      0.0   -9.90      1.2      1.2    100     15.1     15.1   100     16.3    16.3     100     16.6    1.37      3      0      0      0      0    86.2    86.2      0     0.97     15.1     15.1     15.1   100    34.3     4.726    -9.9    0.000    0.000      97        0.00    0.000    0.000     239.0    239.0    1.37   132.7     580.6     160.3     160.3     103.8     103.8      33.8    0.000     0.000     0.000     0.000     0.000    1.37     0.00    0.00      0   -9.90   -9.00        9.6        9.6        9.6        9.6        9.6        9.6        9.6        9.6       10.6       11.7       11.7       11.7        0.0        0.0        0.0        0.0        0.0        0.0        0.0        0.0        0.0        0.0        0.0        0.0      1.6      15.5      19.2      27.1      35.0    391.85
    16     8  2011    47     2     235.9     3.8      7.7    0.0    3.8    0.0      0.0      0.0   -9.90      0.9      0.9    100     13.7     13.7   100     14.6    14.6     100     17.6    1.40      0      0      0      0      0    87.6    87.6      0     0.98     13.7     13.7     13.7   100    34.3     5.063    -9.9    0.000    0.000      97        0.00    0.000    0.000     235.9    235.9    1.40   132.4     589.4     162.7     162.7     100.8     100.8      34.3    0.000     0.000     0.000     0.000     0.000    1.40     0.00    0.00      0   -9.90   -9.00        9.4        9.4        9.5        9.5        9.5        9.5        9.5        9.5       10.2       11.7       11.7       11.7        0.0        0.0        0.0        0.0        0.0        0.0        0.0        0.0        0.0        0.0        0.0        0.0      3.8      14.0      21.2      27.5      33.8    391.85
    17     8  2011    48     2     235.6     3.7     10.9    0.0    3.7    0.0      0.0      0.0   -9.90      0.8      0.8    100     14.2     14.2   100     15.0    15.0     100     17.2    1.42      0      0      0      0      0    88.7    88.7      0     0.99     14.2     14.2     14.2   100    34.3     5.402    -9.9    0.000    0.000      97        0.00    0.000    0.000     235.6    235.6    1.42   134.6     598.2     165.1     165.1     103.2     103.2      34.8    0.000     0.000     0.000     0.000     0.000    1.42     0.00    0.00      0   -9.90   -9.00        9.5        9.5        9.5        9.5        9.5        9.5        9.5        9.5        9.9       11.7       11.7       11.7        0.0        0.0        0.0        0.0        0.0        0.0        0.0        0.0        0.0        0.0        0.0        0.0      3.7      14.3      20.4      27.1      33.9    391.85
    18     8  2011    49     2     235.2     4.3     10.4    0.0    4.3    0.0      0.0      0.0   -9.90      0.7      0.7    100     14.3     14.3   100     15.0    15.0     100     17.2    1.44      0      0      0      0      0    89.7    89.7      0     1.00     14.3     14.3     14.3   100    34.3     5.744    -9.9    0.000    0.000      98        0.00    0.000    0.000     235.2    235.2    1.44   136.4     606.9     167.5     167.5     104.9     104.9      35.3    0.000     0.000     0.000     0.000     0.000    1.44     0.00    0.00      0   -9.90   -9.00        9.5        9.5        9.5        9.5        9.5        9.5        9.5        9.5        9.7       11.7       11.7       11.7        0.0        0.0        0.0        0.0        0.0        0.0        0.0        0.0        0.0        0.0        0.0        0.0      4.3      14.3      20.4      27.1      33.9    391.85
    19     8  2011    50     2     233.7     3.4      9.3    0.0    3.4    0.0      0.0      0.0   -9.90      0.6      0.6    100     13.6     13.6   100     14.2    14.2     100     17.1    1.46      0      0      0      0      0    90.5    90.5      0     1.00     13.6     13.6     13.6   100    34.3     6.088    -9.9    0.000    0.000      98        0.00    0.000    0.000     233.7    233.7    1.46   137.1     615.5     169.9     169.9     103.9     103.9      35.8    0.000     0.000     0.000     0.000     0.000    1.46     0.00    0.00      0   -9.90   -9.00        9.4        9.4        9.4        9.4        9.4        9.4        9.4        9.4        9.5       11.7       11.7       11.7        0.0        0.0        0.0        0.0        0.0        0.0        0.0        0.0        0.0        0.0        0.0        0.0      3.4      13.5      20.2      26.5      32.7    391.85
    20     8  2011    51     2     234.8     3.1     13.0    0.0    3.1    0.0      0.0      0.0   -9.90      0.6      0.6    100     14.4     14.4   100     15.0    15.0     100     17.0    1.48      0      0      0      0      0    91.2    91.2      0     1.01     14.4     14.4     14.4   100    34.3     6.433    -9.9    0.000    0.000      98        0.00    0.000    0.000     234.8    234.8    1.48   140.1     624.2     172.3     172.3     107.9     107.9      36.3    0.000     0.000     0.000     0.000     0.000    1.48     0.00    0.00      0   -9.90   -9.00        9.5        9.5        9.5        9.5        9.5        9.5        9.5        9.5        9.5       11.7       11.7       11.7        0.0        0.0        0.0        0.0        0.0        0.0        0.0        0.0        0.0        0.0        0.0        0.0      3.1      14.3      20.0      26.9      33.7    391.85
    21     8  2011    52     2     234.2     7.3      6.7    0.0    7.3    0.0      0.0      0.0   -9.90      0.5      0.5    100     14.1     14.1   100     14.6    14.6     100     17.3    1.50      0      0      0      0      0    91.8    91.8      0     1.01     14.1     14.1     14.1   100    34.3     6.779    -9.9    0.000    0.000      98        0.00    0.000    0.000     234.2    234.2    1.50   141.5     632.8     174.7     174.7     108.2     108.2      36.8    0.000     0.000     0.000     0.000     0.000    1.50     0.00    0.00      0   -9.90   -9.00        9.4        9.4        9.5        9.5        9.5        9.5        9.5        9.5        9.5       11.7       11.7       11.7        0.0        0.0        0.0        0.0        0.0        0.0        0.0        0.0        0.0        0.0        0.0        0.0      7.3      14.0      20.7      27.1      33.6    391.85
    22     8  2011    53     2     235.5    15.4      0.0    0.0   15.1    0.2      0.0      0.0   -9.90      0.4      0.4    100     13.5     13.5   100     13.9    13.9     100     16.7    1.52      0      0      0      0      0    92.3    92.3      0     1.01     13.5     13.5     13.5   100    34.3     7.127    -9.9    0.000    0.000      98        0.00    0.000    0.000     235.5    235.5    1.52   144.6     641.3     177.0     177.0     107.4     107.4      37.3    0.000     0.000     0.000     0.000     0.000    1.52     0.00    0.00      0   -9.90   -9.00       21.6        6.6        6.7        8.0        9.5        9.5        9.5        9.5        9.5       11.7       11.7       11.7        0.0        0.0        0.0        0.0        0.0        0.0        0.0        0.0        0.0        0.0        0.0        0.0     15.4      13.3      19.5      25.7      31.9    391.85
    23     8  2011    54     2     241.4    25.6      0.0    0.0   22.5    3.2      0.0      0.0   -9.90      0.4      0.4    100     16.1     16.1   100     16.6    16.6     100     16.1    1.54      0      0      0      0      0    92.7    92.7      0     1.02     16.1     16.1     16.1   100    34.3     7.476    -9.9    0.000    0.000      98        0.00    0.000    0.000     241.4    241.4    1.54   152.4     649.8     179.4     179.4     117.3     117.3      37.8    0.000     0.000     0.000     0.000     0.000    1.54     0.00    0.00      0   -9.90   -9.00       32.1        9.0        4.6        5.2        9.0        9.5        9.5        9.5        9.5       11.7       11.7       11.7        0.0        0.0        0.0        0.0        0.0        0.0        0.0        0.0        0.0        0.0        0.0        0.0     25.6      15.9      18.2      26.7      35.1    391.85
    24     8  2011    55     2     233.5     5.9      0.0    0.0    5.9    0.0      0.0      0.0   -9.90      0.3      0.3    100     13.4     13.4   100     13.7    13.7     100     17.5    1.56      0      0      0      0      0    93.1    93.1      0     1.02     13.4     13.4     13.4   100    34.3     7.825    -9.9    0.000    0.000      98        0.00    0.000    0.000     233.5    233.5    1.56   146.7     658.3     181.7     181.7     109.8     109.8      38.3    0.000     0.000     0.000     0.000     0.000    1.56     0.00    0.00      0   -9.90   -9.00       15.3        9.9        9.3        5.4        9.0        9.5        9.5        9.5        9.5       11.7       11.7       11.7        0.0        0.0        0.0        0.0        0.0        0.0        0.0        0.0        0.0        0.0        0.0        0.0      5.9      13.2      20.9      26.7      32.6    391.85
    25     8  2011    56     3     233.0     4.9      8.8    0.0    4.9    0.0      0.0      0.0   -9.90      0.3      0.3    100     13.9     13.9   100     14.2    14.2     100     17.0    1.58      0      0      0      0      0    93.3    93.3      0     1.02     13.9     13.9     13.9   100    34.3     8.175    -9.9    0.000    0.000      98        0.00    0.000    0.000     233.0    233.0    1.58   149.0     666.7     184.0     184.0     112.8     112.8      38.8    0.000     0.000     0.000     0.000     0.000    1.58     0.00    0.00      0   -9.90   -9.00        9.4        9.4        9.4        9.4        9.4        9.4        9.4        9.4        9.4       11.5       11.7       11.7        0.0        0.0        0.0        0.0        0.0        0.0        0.0        0.0        0.0        0.0        0.0        0.0      4.9      13.6      20.0      26.4      32.7    391.85
    26     8  2011    57     3     234.6     8.4      9.0    0.0    8.4    0.0      0.0      0.0   -9.90      0.3      0.3    100     15.4     15.4   100     15.8    15.8     100     16.4    1.60      0      0      0      0      0    93.6    93.6      0     1.02     15.4     15.4     15.4   100    34.3     8.526    -9.9    0.000    0.000      98        0.00    0.000    0.000     234.6    234.6    1.60   153.5     675.1     186.4     186.4     119.3     119.3      39.3    0.000     0.000     0.000     0.000     0.000    1.60     0.00    0.00      0   -9.90   -9.00        9.6        9.6        9.6        9.6        9.6        9.6        9.6        9.6        9.6       11.1       11.7       11.7        0.0        0.0        0.0        0.0        0.0        0.0        0.0        0.0        0.0        0.0        0.0        0.0      8.4      15.1      18.8      26.5      34.3    391.85
    27     8  2011    58     3     233.1     8.9      5.2    0.0    8.9    0.0      0.0      0.0   -9.90      0.3      0.3    100     15.2     15.2   100     15.5    15.5     100     17.0    1.62      0      0      0      0      0    93.8    93.8      0     1.02     15.2     15.2     15.2   100    34.3     8.877     1.5    0.134    0.149      98        0.02    0.000    0.000     233.1    233.1    1.62   155.1     683.5     188.7     188.7     120.0     120.0      39.8    0.000     0.000     0.000     0.000     0.000    1.62     0.00    0.00      0   -9.90   -9.00        9.5        9.5        9.6        9.6        9.6        9.6        9.6        9.6        9.6       10.7       11.7       11.7        0.0        0.0        0.0        0.0        0.0        0.0        0.0        0.0        0.0        0.0        0.0        0.0      8.9      14.9      20.0      27.3      34.6    391.85
    28     8  2011    59     3     232.1     2.7     11.7    0.0    2.7    0.0      0.0      0.0   -9.90      0.3      0.3    100     15.2     15.2   100     15.5    15.5     100     16.7    1.64      0      0      0      0      0    93.9    93.9      0     1.02     15.2     15.2     15.2   100    34.3     9.228     1.9    0.171    0.190      98        0.02    0.000    0.000     232.1    232.1    1.64   156.7     691.8     191.0     191.0     121.2     121.2      40.3    0.000     0.000     0.000     0.000     0.000    1.64     0.00    0.00      0   -9.90   -9.00        9.5        9.5        9.6        9.6        9.6        9.6        9.6        9.6        9.6       10.3       11.7       11.7        0.0        0.0        0.0        0.0        0.0        0.0        0.0        0.0        0.0        0.0        0.0        0.0      2.7      14.8      19.4      26.8      34.2    391.85
    29     8  2011    60     3     231.6     5.2     10.1    0.0    5.2    0.0      0.0      0.0   -9.90      0.3      0.3    100     15.4     15.4   100     15.7    15.7     100     17.3    1.66      0      0      0      0      0    94.0    94.0      0     1.02     15.4     15.4     15.4   100    34.3     9.580     2.3    0.217    0.241      98        0.03    0.000    0.000     231.6    231.6    1.66   158.7     700.1     193.3     193.3     123.3     123.3      40.8    0.000     0.000     0.000     0.000     0.000    1.66     0.00    0.00      0   -9.90   -9.00        9.5        9.5        9.6        9.6        9.6        9.6        9.6        9.6        9.6       10.0       11.7       11.7        0.0        0.0        0.0        0.0        0.0        0.0        0.0        0.0        0.0        0.0        0.0        0.0      5.2      15.0      20.7      27.9      35.1    391.85
    30     8  2011    61     3     232.1    14.2      0.0    0.0   14.0    0.2      0.0      0.0   -9.90      0.2      0.2    100     13.3     13.3   100     13.5    13.5     100     17.1    1.68      0      0      0      0      0    94.0    94.0      0     1.03     13.3     13.3     13.3   100    34.3     9.931     2.8    0.274    0.304      98        0.04    0.000    0.000     232.1    232.1    1.68   161.2     708.4     195.5     195.5     117.6     117.6      41.3    0.000     0.000     0.000     0.000     0.000    1.68     0.00    0.00      0   -9.90   -9.00       20.7        6.7        6.8        8.2        9.6        9.6        9.6        9.6        9.6       10.0       11.7       11.7        0.0        0.0        0.0        0.0        0.0        0.0        0.0        0.0        0.0        0.0        0.0        0.0     14.2      13.0      20.2      26.1      32.0    391.85
    31     8  2011    62     3     231.3     6.8      8.1    0.0    6.7    0.0      0.0      0.0   -9.90      0.4      0.4    100     15.3     15.3   100     15.7    15.7     100     16.7    1.70     -9      0      0      0      0    93.4    93.4      0     1.01     15.3     15.3     15.3   100    34.3    10.278     3.4    0.345    0.384      98        0.05    0.000    0.000     231.3    231.3    1.70   162.5     716.6     197.8     197.8     126.8     126.8      41.8    0.000     0.000     0.000     0.000     0.000    1.70     0.00    0.00      0   -9.90   -9.00        9.6        9.6        9.6        9.6        9.6        9.6        9.6        9.6        9.6        9.8       11.7       11.7        0.0        0.0        0.0        0.0        0.0        0.0        0.0        0.0        0.0        0.0        0.0        0.0      6.8      15.2      19.5      27.1      34.8    391.85
     1     9  2011    63     3     231.1     4.1     11.5    0.0    4.1    0.0      0.0      0.0   -9.90      0.3      0.3    100     15.4     15.4   100     15.7    15.7     100     17.0    1.71     -9      0      0      0      0    93.5    93.5      0     1.01     15.4     15.4     15.4   100    34.3    10.625     4.1    0.433    0.481      98        0.06    0.000    0.000     231.1    231.1    1.71   164.3     724.8     200.1     200.1     128.4     128.4      42.3    0.000     0.000     0.000     0.000     0.000    1.71     0.00    0.00      0   -9.90   -9.00        9.6        9.6        9.6        9.6        9.6        9.6        9.6        9.6        9.6        9.7       11.7       11.7        0.0        0.0        0.0        0.0        0.0        0.0        0.0        0.0        0.0        0.0        0.0        0.0      4.1      15.2      20.1      27.6      35.2    391.85
     2     9  2011    64     3     230.8     9.2      6.1    0.0    9.2    0.0      0.0      0.0   -9.90      0.3      0.3    100     15.2     15.2   100     15.6    15.6     100     16.7    1.73     -9      0      0      0      0    93.6    93.6      0     1.01     15.2     15.2     15.2   100    34.3    10.971     4.9    0.541    0.601      98        0.07    0.000    0.000     230.8    230.8    1.73   165.9     732.9     202.3     202.3     129.4     129.4      42.7    0.000     0.000     0.000     0.000     0.000    1.73     0.00    0.00      0   -9.90   -9.00        9.6        9.6        9.6        9.6        9.6        9.6        9.6        9.6        9.6        9.6       11.7       11.7        0.0        0.0        0.0        0.0        0.0        0.0        0.0        0.0        0.0        0.0        0.0        0.0      9.2      15.1      19.3      27.0      34.7    391.85
     3     9  2011    65     3     229.9     3.2     11.0    0.0    3.2    0.0      0.0      0.0   -9.90      0.3      0.3    100     14.8     14.8   100     15.1    15.1     100     16.8    1.75     -9      0      0      0      0    93.7    93.7      0     1.01     14.8     14.8     14.8   100    34.3    11.317     5.9    0.673    0.747      98        0.09    0.000    0.000     229.9    229.9    1.75   166.9     741.1     204.6     204.6     129.2     129.2      43.2    0.000     0.000     0.000     0.000     0.000    1.75     0.00    0.00      0   -9.90   -9.00        9.5        9.5        9.6        9.6        9.6        9.6        9.6        9.6        9.6        9.6       11.7       11.7        0.0        0.0        0.0        0.0        0.0        0.0        0.0        0.0        0.0        0.0        0.0        0.0      3.2      14.6      19.5      26.8      34.1    391.85
     4     9  2011    66     3     227.7     4.7      7.0    0.0    4.7    0.0      0.0      0.0   -9.90      0.3      0.3    100     13.6     13.6   100     13.9    13.9     100     17.4    1.77     -9      0      0      0      0    93.7    93.7      0     1.01     13.6     13.6     13.6   100    34.3    11.662     7.1    0.831    0.923      98        0.10    0.000    0.000     227.7    227.7    1.77   166.6     749.2     206.8     206.8     126.3     126.3      43.7    0.000     0.000     0.000     0.000     0.000    1.77     0.00    0.00      0   -9.90   -9.00        9.4        9.4        9.4        9.4        9.4        9.4        9.4        9.4        9.4        9.4       11.7       11.7        0.0        0.0        0.0        0.0        0.0        0.0        0.0        0.0        0.0        0.0        0.0        0.0      4.7      13.5      20.8      26.9      33.1    391.85
     5     9  2011    67     3     227.4     2.5     10.8    0.0    2.5    0.0      0.0      0.0   -9.90      0.3      0.3    100     13.4     13.4   100     13.7    13.7     100     17.2    1.79     -9      0      0      0      0    93.8    93.8      0     1.00     13.4     13.4     13.4   100    34.3    12.007     8.5    1.020    1.134      98        0.13    0.000    0.000     227.4    227.4    1.79   168.0     757.2     209.0     209.0     127.1     127.1      44.2    0.000     0.000     0.000     0.000     0.000    1.79     0.00    0.00      0   -9.90   -9.00        9.4        9.4        9.4        9.4        9.4        9.4        9.4        9.4        9.4        9.4       11.7       11.7        0.0        0.0        0.0        0.0        0.0        0.0        0.0        0.0        0.0        0.0        0.0        0.0      2.5      13.3      20.4      26.6      32.7    391.85
     6     9  2011    68     3     226.5    10.0      2.3    0.0   10.0    0.0      0.0      0.0   -9.90      0.3      0.3    100     13.0     13.0   100     13.3    13.3     100     17.5    1.81     -9      0      0      0      0    93.8    93.8      0     1.00     13.0     13.0     13.0   100    34.3    12.350    10.0    1.238    1.375      98        0.15    0.000    0.000     226.5    226.5    1.81   169.4     765.3     211.2     211.2     127.0     127.0      44.6    0.000     0.000     0.000     0.000     0.000    1.81     0.00    0.00      0   -9.90   -9.00        9.3        9.3        9.4        9.4        9.4        9.4        9.4        9.4        9.4        9.4       11.6       11.7        0.0        0.0        0.0        0.0        0.0        0.0        0.0        0.0        0.0        0.0        0.0        0.0     10.0      13.0      21.0      26.8      32.5    391.85
     7     9  2011    69     4     229.8     0.6     18.0    0.0    0.6    0.0      0.0      0.0   -9.90      0.3      0.3    100     15.0     15.0   100     15.3    15.3     100     16.4    1.83     -9      0      0      0      0    93.8    93.8      0     1.00     15.0     15.0     15.0   100    34.3    12.693    11.5    1.466    1.629      98        0.17    0.000    0.000     229.8    229.8    1.83   175.4     773.3     213.5     213.5     136.2     136.2      45.1    0.000     0.000     0.000     0.000     0.000    1.83     0.00    0.00      0   -9.90   -9.00        9.5        9.5        9.6        9.6        9.6        9.6        9.6        9.6        9.6        9.6       11.4       11.7        0.0        0.0        0.0        0.0        0.0        0.0        0.0        0.0        0.0        0.0        0.0        0.0      0.6      15.0      18.8      26.6      34.4    391.85
     8     9  2011    70     4     231.2     4.9     13.0    0.0    4.9    0.0      0.0      0.0   -9.90      0.3      0.3    100     16.1     16.1   100     16.4    16.4     100     15.5    1.85     -9      0      0      0      0    93.9    93.9      0     1.00     16.1     16.1     16.1   100    34.3    13.035    13.1    1.704    1.893      98        0.20    0.000    0.000     231.2    231.2    1.85   179.6     781.3     215.7     215.7     142.2     142.2      45.6    0.000     0.000     0.000     0.000     0.000    1.85     0.00    0.00      0   -9.90   -9.00        9.7        9.7        9.7        9.7        9.7        9.7        9.7        9.7        9.7        9.7       11.1       11.7        0.0        0.0        0.0        0.0        0.0        0.0        0.0        0.0        0.0        0.0        0.0        0.0      4.9      16.1      17.0      26.2      35.5    391.85
     9     9  2011    71     4     229.6     8.2      6.3    0.0    8.2    0.0      0.0      0.0   -9.90      0.3      0.3    100     15.7     15.7   100     16.1    16.1     100     15.8    1.87     -9      0      0      0      0    93.9    93.9      0     1.00     15.7     15.7     15.7   100    34.3    13.377    14.6    1.953    2.170      98        0.22    0.000    0.000     229.6    229.6    1.87   180.8     789.2     217.9     217.9     142.3     142.3      46.1    0.000     0.000     0.000     0.000     0.000    1.87     0.00    0.00      0   -9.90   -9.00        9.6        9.6        9.7        9.7        9.7        9.7        9.7        9.7        9.7        9.7       10.7       11.7        0.0        0.0        0.0        0.0        0.0        0.0        0.0        0.0        0.0        0.0        0.0        0.0      8.2      15.8      17.7      26.5      35.2    391.85
    10     9  2011    72     4     225.1     3.9      5.7    0.0    3.9    0.0      0.0      0.0   -9.90      0.3      0.3    100     13.9     13.9   100     14.2    14.2     100     17.3    1.89     -9      0      0      0      0    93.9    93.9      0     0.99     13.9     13.9     13.9   100    34.3    13.717    16.1    2.212    2.457      98        0.25    0.000    0.000     225.1    225.1    1.89   178.9     797.2     220.0     220.0     136.3     136.3      46.5    0.000     0.000     0.000     0.000     0.000    1.89     0.00    0.00      0   -9.90   -9.00        9.4        9.4        9.5        9.5        9.5        9.5        9.5        9.5        9.5        9.5       10.3       11.7        0.0        0.0        0.0        0.0        0.0        0.0        0.0        0.0        0.0        0.0        0.0        0.0      3.9      14.0      20.7      27.3      33.9    391.85
    11     9  2011    73     4     223.6     6.0      6.4    0.0    6.0    0.0      0.0      0.0   -9.90      0.3      0.3    100     13.5     13.5   100     13.8    13.8     100     17.7    1.90     -9      0      0      0      0    93.9    93.9      0     0.99     13.5     13.5     13.5   100    34.3    14.057    17.6    2.481    2.756      98        0.28    0.000    0.000     223.6    223.6    1.90   179.8     805.1     222.2     222.2     136.4     136.4      47.0    0.000     0.000     0.000     0.000     0.000    1.90     0.00    0.00      0   -9.90   -9.00        9.4        9.4        9.4        9.4        9.4        9.4        9.4        9.4        9.4        9.4        9.9       11.7        0.0        0.0        0.0        0.0        0.0        0.0        0.0        0.0        0.0        0.0        0.0        0.0      6.0      13.7      21.4      27.6      33.9    391.85
    12     9  2011    74     4     222.5     3.3      9.2    0.0    3.3    0.0      0.0      0.0   -9.90      0.3      0.3    100     13.3     13.3   100     13.5    13.5     100     17.2    1.92     -9      0      0      0      0    93.9    93.9      0     0.99     13.3     13.3     13.3   100    34.3    14.396    19.2    2.760    3.067      98        0.30    0.000    0.000     222.5    222.5    1.92   180.9     813.0     224.4     224.4     136.8     136.8      47.5    0.000     0.000     0.000     0.000     0.000    1.92     0.00    0.00      0   -9.90   -9.00        9.4        9.4        9.4        9.4        9.4        9.4        9.4        9.4        9.4        9.4        9.7       11.7        0.0        0.0        0.0        0.0        0.0        0.0        0.0        0.0        0.0        0.0        0.0        0.0      3.3      13.4      20.5      26.8      33.1    391.85
    13     9  2011    75     4     225.2    14.2      3.6    0.0   14.0    0.2      0.0      0.0   -9.90      0.3      0.3    100     14.7     14.7   100     15.0    15.0     100     16.4    1.94     -9      0      0      0      0    94.0    94.0      0     0.99     14.7     14.7     14.7   100    34.3    14.734    20.7    3.050    3.388      98        0.33    0.000    0.000     225.2    225.2    1.94   185.4     820.8     226.6     226.6     144.2     144.2      47.9    0.000     0.000     0.000     0.000     0.000    1.94     0.00    0.00      0   -9.90   -9.00        9.5        9.5        9.6        9.6        9.6        9.6        9.6        9.6        9.6        9.6        9.6       11.7        0.0        0.0        0.0        0.0        0.0        0.0        0.0        0.0        0.0        0.0        0.0        0.0     14.2      14.9      18.8      26.7      34.5    391.85
    14     9  2011    76     4     224.1     1.3     12.0    0.0    1.3    0.0      0.0      0.0   -9.90      0.3      0.3    100     14.0     14.0   100     14.4    14.4     100     17.4    1.96     -9      0     -9      0      0    93.4    93.4      0     0.97     14.0     14.0     14.0   100    34.3    15.068    22.2    3.348    3.720      98        0.35    0.000    0.000     224.1    224.1    1.96   186.2     828.6     228.7     228.7     143.6     143.6      48.4    0.000     0.000     0.000     0.000     0.000    1.96     0.00    0.00      0   -9.90   -9.00        9.5        9.5        9.5        9.5        9.5        9.5        9.5        9.5        9.5        9.5        9.6       11.7        0.0        0.0        0.0        0.0        0.0        0.0        0.0        0.0        0.0        0.0        0.0        0.0      1.3      14.4      20.9      27.9      34.8    391.85
    15     9  2011    77     4     224.2     1.1     13.3    0.0    1.1    0.0      0.0      0.0   -9.90      0.4      0.4    100     13.9     13.9   100     14.3    14.3     100     16.5    1.98     -9      0     -9      0      0    92.7    92.7      0     0.96     13.9     13.9     13.9   100    34.3    15.397    23.7    3.656    4.063      98        0.38    0.000    0.000     224.2    224.2    1.98   188.1     836.4     230.9     230.9     145.3     145.3      48.8    0.000     0.000     0.000     0.000     0.000    1.98     0.00    0.00      0   -9.90   -9.00        9.5        9.5        9.5        9.5        9.5        9.5        9.5        9.5        9.5        9.5        9.5       11.7        0.0        0.0        0.0        0.0        0.0        0.0        0.0        0.0        0.0        0.0        0.0        0.0      1.1      14.5      19.1      26.6      34.0    391.85
    16     9  2011    78     4     226.4     6.2     11.2    0.0    6.2    0.0      0.0      0.0   -9.90      0.5      0.5    100     14.7     14.7   100     15.2    15.2     100     16.8    2.00     -9      0     -9      0      0    92.0    92.0      0     0.94     14.7     14.7     14.7   100    34.3    15.721    25.3    3.973    4.414      98        0.41    0.000    0.000     226.4    226.4    2.00   192.0     844.2     233.0     233.0     151.0     151.0      49.3    0.000     0.000     0.000     0.000     0.000    2.00     0.00    0.00      0   -9.90   -9.00        9.6        9.6        9.6        9.6        9.6        9.6        9.6        9.6        9.6        9.6        9.6       11.7        0.0        0.0        0.0        0.0        0.0        0.0        0.0        0.0        0.0        0.0        0.0        0.0      6.2      15.5      19.5      27.7      35.9    391.85
    17     9  2011    79     4     228.7    15.4      0.0    0.0   15.1    0.3      0.0      0.0   -9.90      0.5      0.5    100     12.3     12.3   100     12.8    12.8     100     16.4    2.01     -9      0     -9      0      0    91.1    91.1      0     0.93     12.3     12.3     12.3   100    34.3    16.039    26.8    4.298    4.776      98        0.44    0.000    0.000     228.7    228.7    2.01   196.1     852.0     235.2     235.2     142.6     142.6      49.8    0.000     0.000     0.000     0.000     0.000    2.01     0.00    0.00      0   -9.90   -9.00       21.6        6.8        6.8        8.9        9.6        9.6        9.6        9.6        9.6        9.6        9.6       11.7        0.0        0.0        0.0        0.0        0.0        0.0        0.0        0.0        0.0        0.0        0.0        0.0     15.4      13.2      18.8      25.4      32.1    391.85
    18     9  2011    80     4     222.4     5.0      1.7    0.0    5.0    0.0      0.0      0.0   -9.90      0.6      0.6    100     12.4     12.4   100     13.0    13.0     100     16.9    2.03     -9      0     -9      0      0    90.2    90.2      0     0.91     12.4     12.4     12.4   100    34.3    16.351    28.3    4.631    5.145      98        0.46    0.000    0.000     222.4    222.4    2.03   191.5     859.7     237.3     237.3     145.7     145.7      50.2    0.000     0.000     0.000     0.000     0.000    2.03     0.00    0.00      0   -9.90   -9.00        9.4        9.4        9.4        9.4        9.4        9.4        9.4        9.4        9.4        9.4        9.5       11.7        0.0        0.0        0.0        0.0        0.0        0.0        0.0        0.0        0.0        0.0        0.0        0.0      5.0      13.7      19.8      26.5      33.3    391.85
    19     9  2011    81     4     221.8     1.5     10.5    0.0    1.5    0.0      0.0      0.0   -9.90      0.7      0.7    100     11.9     11.9   100     12.6    12.6     100     18.1    2.05     -9      0     -9      0      0    89.1    89.1      0     0.89     11.9     11.9     11.9   100    34.3    16.656    29.8    4.971    5.524      98        0.49    0.000    0.000     221.8    221.8    2.05   192.7     867.4     239.4     239.4     145.9     145.9      50.7    0.000     0.000     0.000     0.000     0.000    2.05     0.00    0.00      0   -9.90   -9.00        9.4        9.4        9.4        9.4        9.4        9.4        9.4        9.4        9.4        9.4        9.4       11.7        0.0        0.0        0.0        0.0        0.0        0.0        0.0        0.0        0.0        0.0        0.0        0.0      1.5      13.4      22.2      28.2      34.3    391.85
    20     9  2011    82     4     222.3    11.5      1.9    0.0   11.4    0.0      0.0      0.0   -9.90      0.8      0.8    100     12.0     12.0   100     12.8    12.8     100     17.2    2.07     -9      0     -9      0      0    87.8    87.8      0     0.87     12.0     12.0     12.0   100    34.3    16.954    31.4    5.319    5.909      98        0.52    0.000    0.000     222.3    222.3    2.07   195.7     875.1     241.5     241.5     149.0     149.0      51.1    0.000     0.000     0.000     0.000     0.000    2.07     0.00    0.00      0   -9.90   -9.00        9.4        9.4        9.5        9.5        9.5        9.5        9.5        9.5        9.5        9.5        9.5       11.5        0.0        0.0        0.0        0.0        0.0        0.0        0.0        0.0        0.0        0.0        0.0        0.0     11.5      13.8      20.5      27.2      34.0    391.85
    21     9  2011    83     4     221.2     4.7      6.7    0.0    4.7    0.0      0.0      0.0   -9.90      0.9      0.9    100     11.5     11.5   100     12.4    12.4     100     17.0    2.09     -9      0     -9      0      0    86.5    86.5      0     0.84     11.5     11.5     11.5   100    34.3    17.243    32.9    5.672    6.302      98        0.55    0.000    0.000     221.2    221.2    2.09   197.3     882.8     243.7     243.7     149.6     149.6      51.6    0.000     0.000     0.000     0.000     0.000    2.09     0.00    0.00      0   -9.90   -9.00        9.4        9.4        9.4        9.4        9.4        9.4        9.4        9.4        9.4        9.4        9.4       11.2        0.0        0.0        0.0        0.0        0.0        0.0        0.0        0.0        0.0        0.0        0.0        0.0      4.7      13.7      20.1      26.8      33.5    391.85
    22     9  2011    84     4     222.2     3.4     10.7    0.0    3.4    0.0      0.0      0.0   -9.90      1.1      1.1    100     11.9     11.9   100     13.0    13.0     100     16.5    2.10     -9      0     -9      0      0    84.9    84.9      0     0.82     11.9     11.9     11.9   100    34.3    17.522    34.4    6.031    6.702      98        0.57    0.000    0.000     222.2    222.2    2.10   201.1     890.4     245.8     245.8     154.9     154.9      52.0    0.000     0.000     0.000     0.000     0.000    2.10     0.00    0.00      0   -9.90   -9.00        9.5        9.5        9.5        9.5        9.5        9.5        9.5        9.5        9.5        9.5        9.5       10.8        0.0        0.0        0.0        0.0        0.0        0.0        0.0        0.0        0.0        0.0        0.0        0.0      3.4      14.6      19.0      26.7      34.4    391.85
    23     9  2011    85     4     221.6     3.2      9.0    0.0    3.2    0.0      0.0      0.0   -9.90      1.3      1.3    100     11.5     11.5   100     12.8    12.8     100     17.4    2.12     -9      0     -9      0      0    83.1    83.1      0     0.79     11.5     11.5     11.5   100    34.3    17.792    35.9    6.396    7.106      98        0.60    0.000    0.000     221.6    221.6    2.12   203.0     898.0     247.9     247.9     156.8     156.8      52.5    0.000     0.000     0.000     0.000     0.000    2.12     0.00    0.00      0   -9.90   -9.00        9.5        9.5        9.6        9.6        9.6        9.6        9.6        9.6        9.6        9.6        9.6       10.5        0.0        0.0        0.0        0.0        0.0        0.0        0.0        0.0        0.0        0.0        0.0        0.0      3.2      14.7      20.9      28.2      35.6    391.85
    24     9  2011    86     4     218.2     8.1      0.2    0.0    8.1    0.0      0.0      0.0   -9.90      1.3      1.3    100     10.2     10.2   100     11.6    11.6     100     16.3    2.14     -9      0     -9      0      0    81.2    81.2      0     0.75     10.2     10.2     10.2   100    34.3    18.051    37.5    6.764    7.515      98        0.63    0.000    0.000     218.2    218.2    2.14   202.2     905.6     250.0     250.0     153.1     153.1      52.9    0.000     0.000     0.000     0.000     0.000    2.14     0.00    0.00      0   -9.90   -9.00        9.4        9.4        9.4        9.4        9.4        9.4        9.4        9.4        9.4        9.4        9.4       10.1        0.0        0.0        0.0        0.0        0.0        0.0        0.0        0.0        0.0        0.0        0.0        0.0      8.1      13.6      18.6      25.7      32.8    391.85
    25     9  2011    87     4     221.9    15.1      0.0    0.0   14.9    0.2      0.0      0.0   -9.90      1.5      1.5    100      9.8      9.8   100     11.3    11.3     100     16.7    2.16     -9      0     -9      0      0    78.9    78.9      0     0.72      9.8      9.8      9.8   100    34.3    18.297    39.0    7.135    7.928      98        0.66    0.000    0.000     221.9    221.9    2.16   207.6     913.2     252.1     252.1     154.4     154.4      53.4    0.000     0.000     0.000     0.000     0.000    2.16     0.00    0.00      0   -9.90   -9.00       20.2        6.5        7.6        9.4        9.4        9.4        9.4        9.4        9.4        9.4        9.4       10.1        0.0        0.0        0.0        0.0        0.0        0.0        0.0        0.0        0.0        0.0        0.0        0.0     15.1      13.6      19.5      26.4      33.3    391.85
[...]
    10    12  2015    -9     0     217.1    15.2      0.0    0.0   15.2    0.0      0.0      0.0   -9.90     12.4      8.6     69      0.0      0.0   100     12.4     8.6      69     17.3    2.28     -9     -9     -9      0     -9     0.0     0.0      0    -9.00      0.0      0.0      0.0   100    34.5    19.624    48.2    9.454   10.504      98        0.82    0.000    0.000     217.1    217.1    2.28   215.5     965.7     266.5     266.5     152.3     163.6      56.5    0.000     0.000     0.000     0.000     0.000    2.28     0.00    0.00      0   -9.90   -9.00        7.8       10.2        9.5        9.5        9.5        9.5        9.5        9.5        9.5        9.5        9.5        9.5        0.0        0.0        0.0        0.0        0.0        0.0        0.0        0.0        0.0        0.0        0.0        0.0     15.2      11.3      20.6      27.3      34.0    401.01
    11    12  2015    -9     0     213.2     2.5      0.0    0.0    2.5    0.0      0.0      0.0   -9.90     12.7      6.5     51      0.0      0.0   100     12.7     6.5      51     17.0    2.28     -9     -9     -9      0     -9     0.0     0.0      0    -9.00      0.0      0.0      0.0   100    34.5    19.624    48.2    9.454   10.504      98        0.82    0.000    0.000     213.2    213.2    2.28   211.5     965.7     266.5     266.5     153.4     163.6      56.5    0.000     0.000     0.000     0.000     0.000    2.28     0.00    0.00      0   -9.90   -9.00        3.8       10.2        9.5        9.5        9.5        9.5        9.5        9.5        9.5        9.5        9.5        9.5        0.0        0.0        0.0        0.0        0.0        0.0        0.0        0.0        0.0        0.0        0.0        0.0      2.5      11.6      19.9      27.0      34.1    401.01
    12    12  2015    -9     0     211.5     0.6      0.0    0.0    0.6    0.0      0.0      0.0   -9.90     12.1      2.2     18      0.0      0.0   100     12.1     2.2      18     16.4    2.28     -9     -9     -9      0     -9     0.0     0.0      0    -9.00      0.0      0.0      0.0   100    34.5    19.624    48.2    9.454   10.504      98        0.82    0.000    0.000     211.5    211.5    2.28   209.9     965.7     266.5     266.5     150.8     163.6      56.5    0.000     0.000     0.000     0.000     0.000    2.28     0.00    0.00      0   -9.90   -9.00        2.2       10.2        9.5        9.5        9.5        9.5        9.5        9.5        9.5        9.5        9.5        9.5        0.0        0.0        0.0        0.0        0.0        0.0        0.0        0.0        0.0        0.0        0.0        0.0      0.6      11.0      18.9      25.7      32.5    401.01
    13    12  2015    -9     0     211.8     5.5      0.0    0.0    5.5    0.0      0.0      0.0   -9.90     11.9      5.2     43      0.0      0.0   100     11.9     5.2      43     17.3    2.28     -9     -9     -9      0     -9     0.0     0.0      0    -9.00      0.0      0.0      0.0   100    34.5    19.624    48.2    9.454   10.504      98        0.82    0.000    0.000     211.8    211.8    2.28   210.2     965.7     266.5     266.5     150.0     163.6      56.5    0.000     0.000     0.000     0.000     0.000    2.28     0.00    0.00      0   -9.90   -9.00        2.5       10.2        9.5        9.5        9.5        9.5        9.5        9.5        9.5        9.5        9.5        9.5        0.0        0.0        0.0        0.0        0.0        0.0        0.0        0.0        0.0        0.0        0.0        0.0      5.5      10.8      20.7      27.0      33.2    401.01
    14    12  2015    -9     0     211.2     4.3      0.0    0.0    4.3    0.0      0.0      0.0   -9.90     13.1      5.0     38      0.0      0.0   100     13.1     5.0      38     16.9    2.28     -9     -9     -9      0     -9     0.0     0.0      0    -9.00      0.0      0.0      0.0   100    34.5    19.624    48.2    9.454   10.504      98        0.82    0.000    0.000     211.2    211.2    2.28   209.5     965.7     266.5     266.5     155.0     163.6      56.5    0.000     0.000     0.000     0.000     0.000    2.28     0.00    0.00      0   -9.90   -9.00        1.8       10.2        9.5        9.5        9.5        9.5        9.5        9.5        9.5        9.5        9.5        9.5        0.0        0.0        0.0        0.0        0.0        0.0        0.0        0.0        0.0        0.0        0.0        0.0      4.3      11.9      19.7      27.2      34.6    401.01
    15    12  2015    -9     0     210.4     3.8      0.0    0.0    3.8    0.0      0.0      0.0   -9.90     13.2      4.5     34      0.0      0.0   100     13.2     4.5      34     17.0    2.28     -9     -9     -9      0     -9     0.0     0.0      0    -9.00      0.0      0.0      0.0   100    34.5    19.624    48.2    9.454   10.504      98        0.82    0.000    0.000     210.4    210.4    2.28   208.8     965.7     266.5     266.5     155.8     163.6      56.5    0.000     0.000     0.000     0.000     0.000    2.28     0.00    0.00      0   -9.90   -9.00        1.2       10.1        9.5        9.5        9.5        9.5        9.5        9.5        9.5        9.5        9.5        9.5        0.0        0.0        0.0        0.0        0.0        0.0        0.0        0.0        0.0        0.0        0.0        0.0      3.8      12.0      20.1      27.6      35.1    401.01
    16    12  2015    -9     0     209.6     0.0      0.0    0.0    0.0    0.0      0.0      0.0   -9.90     11.9      0.9      7      0.0      0.0   100     11.9     0.9       7     17.6    2.28     -9     -9     -9      0     -9     0.0     0.0      0    -9.00      0.0      0.0      0.0   100    34.5    19.624    48.2    9.454   10.504      98        0.82    0.000    0.000     209.6    209.6    2.28   208.0     965.7     266.5     266.5     150.0     163.6      56.5    0.000     0.000     0.000     0.000     0.000    2.28     0.00    0.00      0   -9.90   -9.00        1.2        9.5        9.5        9.5        9.5        9.5        9.5        9.5        9.5        9.5        9.5        9.5        0.0        0.0        0.0        0.0        0.0        0.0        0.0        0.0        0.0        0.0        0.0        0.0      0.0      10.8      21.1      27.3      33.5    401.01
    17    12  2015    -9     0     208.9     3.3      0.0    0.0    3.3    0.0      0.0      0.0   -9.90     13.8      4.0     29      0.0      0.0   100     13.8     4.0      29     16.1    2.28     -9     -9     -9      0     -9     0.0     0.0      0    -9.00      0.0      0.0      0.0   100    34.5    19.624    48.2    9.454   10.504      98        0.82    0.000    0.000     208.9    208.9    2.28   207.3     965.7     266.5     266.5     158.1     163.6      56.5    0.000     0.000     0.000     0.000     0.000    2.28     0.00    0.00      0   -9.90   -9.00        1.2        9.1        9.5        9.5        9.5        9.5        9.5        9.5        9.5        9.5        9.5        9.5        0.0        0.0        0.0        0.0        0.0        0.0        0.0        0.0        0.0        0.0        0.0        0.0      3.3      12.5      18.1      26.6      35.1    401.01
    18    12  2015    -9     0     208.3     3.4      0.0    0.0    3.4    0.0      0.0      0.0   -9.90     14.0      4.1     29      0.0      0.0   100     14.0     4.1      29     16.9    2.28     -9     -9     -9      0     -9     0.0     0.0      0    -9.00      0.0      0.0      0.0   100    34.5    19.624    48.2    9.454   10.504      98        0.82    0.000    0.000     208.3    208.3    2.28   206.6     965.7     266.5     266.5     159.1     163.6      56.5    0.000     0.000     0.000     0.000     0.000    2.28     0.00    0.00      0   -9.90   -9.00        1.2        8.6        9.5        9.5        9.5        9.5        9.5        9.5        9.5        9.5        9.5        9.5        0.0        0.0        0.0        0.0        0.0        0.0        0.0        0.0        0.0        0.0        0.0        0.0      3.4      12.7      19.8      28.1      36.3    401.01
    19    12  2015    -9     0     209.5     6.1      0.0    0.0    6.1    0.0      0.0      0.0   -9.90     12.6      4.9     39      0.0      0.0   100     12.6     4.9      39     16.8    2.28     -9     -9     -9      0     -9     0.0     0.0      0    -9.00      0.0      0.0      0.0   100    34.5    19.624    48.2    9.454   10.504      98        0.82    0.000    0.000     209.5    209.5    2.28   207.8     965.7     266.5     266.5     153.1     163.6      56.5    0.000     0.000     0.000     0.000     0.000    2.28     0.00    0.00      0   -9.90   -9.00        2.4        8.6        9.5        9.5        9.5        9.5        9.5        9.5        9.5        9.5        9.5        9.5        0.0        0.0        0.0        0.0        0.0        0.0        0.0        0.0        0.0        0.0        0.0        0.0      6.1      11.5      19.6      26.7      33.8    401.01
    20    12  2015    -9     0     210.8     7.2      0.0    0.0    7.2    0.0      0.0      0.0   -9.90     13.0      5.8     45      0.0      0.0   100     13.0     5.8      45     17.0    2.28     -9     -9     -9      0     -9     0.0     0.0      0    -9.00      0.0      0.0      0.0   100    34.5    19.624    48.2    9.454   10.504      98        0.82    0.000    0.000     210.8    210.8    2.28   209.2     965.7     266.5     266.5     154.6     163.6      56.5    0.000     0.000     0.000     0.000     0.000    2.28     0.00    0.00      0   -9.90   -9.00        3.8        8.6        9.5        9.5        9.5        9.5        9.5        9.5        9.5        9.5        9.5        9.5        0.0        0.0        0.0        0.0        0.0        0.0        0.0        0.0        0.0        0.0        0.0        0.0      7.2      11.8      20.1      27.4      34.7    401.01
    21    12  2015    -9     0     211.6     7.3      0.0    0.0    7.3    0.0      0.0      0.0   -9.90     12.2      6.5     54      0.0      0.0   100     12.2     6.5      54     17.5    2.28     -9     -9     -9      0     -9     0.0     0.0      0    -9.00      0.0      0.0      0.0   100    34.5    19.624    48.2    9.454   10.504      98        0.82    0.000    0.000     211.6    211.6    2.28   210.0     965.7     266.5     266.5     151.2     163.6      56.5    0.000     0.000     0.000     0.000     0.000    2.28     0.00    0.00      0   -9.90   -9.00        4.6        8.6        9.5        9.5        9.5        9.5        9.5        9.5        9.5        9.5        9.5        9.5        0.0        0.0        0.0        0.0        0.0        0.0        0.0        0.0        0.0        0.0        0.0        0.0      7.3      11.1      21.1      27.5      33.9    401.01
    22    12  2015    -9     0     210.2     3.6      0.0    0.0    3.6    0.0      0.0      0.0   -9.90     13.3      5.1     38      0.0      0.0   100     13.3     5.1      38     16.0    2.28     -9     -9     -9      0     -9     0.0     0.0      0    -9.00      0.0      0.0      0.0   100    34.5    19.624    48.2    9.454   10.504      98        0.82    0.000    0.000     210.2    210.2    2.28   208.5     965.7     266.5     266.5     155.9     163.6      56.5    0.000     0.000     0.000     0.000     0.000    2.28     0.00    0.00      0   -9.90   -9.00        3.1        8.6        9.5        9.5        9.5        9.5        9.5        9.5        9.5        9.5        9.5        9.5        0.0        0.0        0.0        0.0        0.0        0.0        0.0        0.0        0.0        0.0        0.0        0.0      3.6      12.1      18.0      26.1      34.2    401.01
    23    12  2015    -9     0     209.3     3.5      0.0    0.0    3.5    0.0      0.0      0.0   -9.90     12.7      4.3     34      0.0      0.0   100     12.7     4.3      34     16.6    2.28     -9     -9     -9      0     -9     0.0     0.0      0    -9.00      0.0      0.0      0.0   100    34.5    19.624    48.2    9.454   10.504      98        0.82    0.000    0.000     209.3    209.3    2.28   207.7     965.7     266.5     266.5     153.3     163.6      56.5    0.000     0.000     0.000     0.000     0.000    2.28     0.00    0.00      0   -9.90   -9.00        2.3        8.6        9.5        9.5        9.5        9.5        9.5        9.5        9.5        9.5        9.5        9.5        0.0        0.0        0.0        0.0        0.0        0.0        0.0        0.0        0.0        0.0        0.0        0.0      3.5      11.5      19.2      26.4      33.7    401.01
    24    12  2015    -9     0     208.6     2.3      0.0    0.0    2.3    0.0      0.0      0.0   -9.90     13.3      3.1     23      0.0      0.0   100     13.3     3.1      23     18.4    2.28     -9     -9     -9      0     -9     0.0     0.0      0    -9.00      0.0      0.0      0.0   100    34.5    19.624    48.2    9.454   10.504      98        0.82    0.000    0.000     208.6    208.6    2.28   206.9     965.7     266.5     266.5     156.0     163.6      56.5    0.000     0.000     0.000     0.000     0.000    2.28     0.00    0.00      0   -9.90   -9.00        1.5        8.6        9.5        9.5        9.5        9.5        9.5        9.5        9.5        9.5        9.5        9.5        0.0        0.0        0.0        0.0        0.0        0.0        0.0        0.0        0.0        0.0        0.0        0.0      2.3      12.1      22.7      29.6      36.6    401.01
    25    12  2015    -9     0     208.0     3.4      0.0    0.0    3.4    0.0      0.0      0.0   -9.90     12.9      4.0     31      0.0      0.0   100     12.9     4.0      31     17.3    2.28     -9     -9     -9      0     -9     0.0     0.0      0    -9.00      0.0      0.0      0.0   100    34.5    19.624    48.2    9.454   10.504      98        0.82    0.000    0.000     208.0    208.0    2.28   206.3     965.7     266.5     266.5     154.2     163.6      56.5    0.000     0.000     0.000     0.000     0.000    2.28     0.00    0.00      0   -9.90   -9.00        1.2        8.4        9.5        9.5        9.5        9.5        9.5        9.5        9.5        9.5        9.5        9.5        0.0        0.0        0.0        0.0        0.0        0.0        0.0        0.0        0.0        0.0        0.0        0.0      3.4      11.7      20.6      27.7      34.8    401.01
    26    12  2015    -9     0     207.4     3.1      0.0    0.0    3.1    0.0      0.0      0.0   -9.90     12.7      3.7     29      0.0      0.0   100     12.7     3.7      29     16.9    2.28     -9     -9     -9      0     -9     0.0     0.0      0    -9.00      0.0      0.0      0.0   100    34.5    19.624    48.2    9.454   10.504      98        0.82    0.000    0.000     207.4    207.4    2.28   205.8     965.7     266.5     266.5     153.6     163.6      56.5    0.000     0.000     0.000     0.000     0.000    2.28     0.00    0.00      0   -9.90   -9.00        1.2        8.0        9.5        9.5        9.5        9.5        9.5        9.5        9.5        9.5        9.5        9.5        0.0        0.0        0.0        0.0        0.0        0.0        0.0        0.0        0.0        0.0        0.0        0.0      3.1      11.6      19.8      26.9      34.1    401.01
    27    12  2015    -9     0     210.2     8.4      0.0    0.0    8.4    0.0      0.0      0.0   -9.90     12.6      5.7     45      0.0      0.0   100     12.6     5.7      45     17.6    2.28     -9     -9     -9      0     -9     0.0     0.0      0    -9.00      0.0      0.0      0.0   100    34.5    19.624    48.2    9.454   10.504      98        0.82    0.000    0.000     210.2    210.2    2.28   208.5     965.7     266.5     266.5     153.1     163.6      56.5    0.000     0.000     0.000     0.000     0.000    2.28     0.00    0.00      0   -9.90   -9.00        4.0        8.0        9.5        9.5        9.5        9.5        9.5        9.5        9.5        9.5        9.5        9.5        0.0        0.0        0.0        0.0        0.0        0.0        0.0        0.0        0.0        0.0        0.0        0.0      8.4      11.5      21.3      28.0      34.7    401.01
    28    12  2015    -9     0     209.2     3.7      0.0    0.0    3.7    0.0      0.0      0.0   -9.90     12.6      4.7     37      0.0      0.0   100     12.6     4.7      37     16.4    2.28     -9     -9     -9      0     -9     0.0     0.0      0    -9.00      0.0      0.0      0.0   100    34.5    19.624    48.2    9.454   10.504      98        0.82    0.000    0.000     209.2    209.2    2.28   207.5     965.7     266.5     266.5     152.9     163.6      56.5    0.000     0.000     0.000     0.000     0.000    2.28     0.00    0.00      0   -9.90   -9.00        2.9        8.0        9.5        9.5        9.5        9.5        9.5        9.5        9.5        9.5        9.5        9.5        0.0        0.0        0.0        0.0        0.0        0.0        0.0        0.0        0.0        0.0        0.0        0.0      3.7      11.4      18.8      26.1      33.3    401.01
    29    12  2015    -9     0     208.6     4.2      0.0    0.0    4.2    0.0      0.0      0.0   -9.90     13.2      4.8     36      0.0      0.0   100     13.2     4.8      36     16.6    2.28     -9     -9     -9      0     -9     0.0     0.0      0    -9.00      0.0      0.0      0.0   100    34.5    19.624    48.2    9.454   10.504      98        0.82    0.000    0.000     208.6    208.6    2.28   207.0     965.7     266.5     266.5     155.7     163.6      56.5    0.000     0.000     0.000     0.000     0.000    2.28     0.00    0.00      0   -9.90   -9.00        2.4        8.0        9.5        9.5        9.5        9.5        9.5        9.5        9.5        9.5        9.5        9.5        0.0        0.0        0.0        0.0        0.0        0.0        0.0        0.0        0.0        0.0        0.0        0.0      4.2      12.0      19.2      26.9      34.6    401.01
    30    12  2015    -9     0     211.2    10.2      0.0    0.0   10.2    0.0      0.0      0.0   -9.90     13.7      7.7     56      0.0      0.0   100     13.7     7.7      56     16.8    2.28     -9     -9     -9      0     -9     0.0     0.0      0    -9.00      0.0      0.0      0.0   100    34.5    19.624    48.2    9.454   10.504      98        0.82    0.000    0.000     211.2    211.2    2.28   209.5     965.7     266.5     266.5     157.7     163.6      56.5    0.000     0.000     0.000     0.000     0.000    2.28     0.00    0.00      0   -9.90   -9.00        5.0        8.0        9.5        9.5        9.5        9.5        9.5        9.5        9.5        9.5        9.5        9.5        0.0        0.0        0.0        0.0        0.0        0.0        0.0        0.0        0.0        0.0        0.0        0.0     10.2      12.4      19.6      27.6      35.5    401.01
    31    12  2015    -9     0     209.7     2.6      0.0    0.0    2.6    0.0      0.0      0.0   -9.90     11.8      4.0     34      0.0      0.0   100     11.8     4.0      34     17.3    2.28     -9     -9     -9      0     -9     0.0     0.0      0    -9.00      0.0      0.0      0.0   100    34.5    19.624    48.2    9.454   10.504      98        0.82    0.000    0.000     209.7    209.7    2.28   208.1     965.7     266.5     266.5     149.6     163.6      56.5    0.000     0.000     0.000     0.000     0.000    2.28     0.00    0.00      0   -9.90   -9.00        3.5        8.0        9.5        9.5        9.5        9.5        9.5        9.5        9.5        9.5        9.5        9.5        0.0        0.0        0.0        0.0        0.0        0.0        0.0        0.0        0.0        0.0        0.0        0.0      2.6      10.8      20.5      26.7      32.9    401.01
