AquaCrop 7.1 (August 2023) - Output created on (date) : 29-01-2026   at (time) : 01:20:27

   Run:   1
   Day Month  Year   DAP Stage   WC(2.30)   Rain     Irri   Surf   Infilt   RO    Drain       CR    Zgwt       Ex       E     E/Ex     Trx       Tr  Tr/Trx    ETx      ET  ET/ETx      GD       Z     StExp  StSto  StSen StSalt StWeed   CC      CCw     StTr  Kc(Tr)     Trx       Tr      TrW  Tr/Trx   WP    Biomass     HI    Y(dry)  Y(fresh)  Brelative    WPet      Bin     Bout  WC(2.30) Wr(2.30)     Z       Wr    Wr(SAT)    Wr(FC)   Wr(exp)   Wr(sto)   Wr(sen)   Wr(PWP)    SaltIn    SaltOut   SaltUp   Salt(2.30)  SaltZ     Z       ECe    ECsw   StSalt  Zgwt    ECgw       WC01       WC 2       WC 3       WC 4       WC 5       WC 6       WC 7       WC 8       WC 9       WC10       WC11       WC12      ECe01      ECe 2      ECe 3      ECe 4      ECe 5      ECe 6      ECe 7      ECe 8      ECe 9      ECe10      ECe11      ECe12     Rain       ETo      Tmin      Tavg      Tmax      CO2
                                      mm      mm       mm     mm     mm     mm       mm       mm      m        mm       mm     %        mm       mm    %        mm      mm       %  degC-day     m       %      %      %      %      %      %       %       %       -        mm       mm       mm    %     g/m2    ton/ha      %    ton/ha   ton/ha       %       kg/m3   ton/ha   ton/ha      mm       mm       m       mm        mm        mm        mm        mm        mm         mm    ton/ha    ton/ha    ton/ha    ton/ha    ton/ha     m      dS/m    dS/m      %     m      dS/m       0.05       0.18       0.33       0.48       0.63       0.80       1.00       1.20       1.43       1.68       1.93       2.18       0.05       0.18       0.33       0.48       0.63       0.80       1.00       1.20       1.43       1.68       1.93       2.18       mm        mm     degC      degC      degC       ppm
     1     7  2024     1     1     268.3     0.0      0.0    0.0    0.0    0.0      0.0      0.0   -9.90      0.3      0.3     98      0.0      0.0   100      0.3     0.3      98     19.6    0.30     -9     -9     -9      0     -9     0.0     0.0      0    -9.00      0.0      0.0      0.0   100     0.0     0.000    -9.9    0.000    0.000      -9        0.00    0.000    0.000     268.3    268.3    0.30    34.3     125.1      34.6      30.7      12.4      15.5       6.9    0.000     0.000     0.000     0.000     0.000    0.30     0.00    0.00      0   -9.90   -9.00       11.4       11.7       11.7       11.7       11.7       11.7       11.7       11.7       11.7       11.7       11.7       11.7        0.0        0.0        0.0        0.0        0.0        0.0        0.0        0.0        0.0        0.0        0.0        0.0      0.0       0.3      25.2      28.3      31.4    422.57
     2     7  2024     2     1     268.2     0.3      0.0    0.0    0.3    0.0      0.0      0.0   -9.90      0.3      0.3     99      0.0      0.0   100      0.3     0.3      99     19.4    0.30     -9     -9     -9      0     -9     0.0     0.0      0    -9.00      0.0      0.0      0.0   100     0.0     0.000    -9.9    0.000    0.000      -9        0.00    0.000    0.000     268.2    268.2    0.30    34.2     125.1      34.6      30.7      12.5      15.5       6.9    0.000     0.000     0.000     0.000     0.000    0.30     0.00    0.00      0   -9.90   -9.00       11.3       11.7       11.7       11.7       11.7       11.7       11.7       11.7       11.7       11.7       11.7       11.7        0.0        0.0        0.0        0.0        0.0        0.0        0.0        0.0        0.0        0.0        0.0        0.0      0.3       0.3      24.9      29.0      33.2    422.57
     3     7  2024     3     1     268.0     0.1      0.0    0.0    0.1    0.0      0.0      0.0   -9.90      0.3      0.3    100      0.0      0.0   100      0.3     0.3     100     20.0    0.30     -9     -9     -9      0     -9     0.0     0.0      0    -9.00      0.0      0.0      0.0   100     0.0     0.000    -9.9    0.000    0.000      -9        0.00    0.000    0.000     268.0    268.0    0.30    34.0     125.1      34.6      30.7      12.5      15.5       6.9    0.000     0.000     0.000     0.000     0.000    0.30     0.00    0.00      0   -9.90   -9.00       11.1       11.7       11.7       11.7       11.7       11.7       11.7       11.7       11.7       11.7       11.7       11.7        0.0        0.0        0.0        0.0        0.0        0.0        0.0        0.0        0.0        0.0        0.0        0.0      0.1       0.3      25.9      29.5      33.0    422.57
     4     7  2024     4     1     267.9     0.1      0.0    0.0    0.1    0.0      0.0      0.0   -9.90      0.3      0.3     99      0.0      0.0   100      0.3     0.3      99     19.6    0.30     -9     -9     -9      0     -9     0.0     0.0      0    -9.00      0.0      0.0      0.0   100     0.0     0.000    -9.9    0.000    0.000      -9        0.00    0.000    0.000     267.9    267.9    0.30    33.9     125.1      34.6      30.7      12.4      15.5       6.9    0.000     0.000     0.000     0.000     0.000    0.30     0.00    0.00      0   -9.90   -9.00       11.0       11.7       11.7       11.7       11.7       11.7       11.7       11.7       11.7       11.7       11.7       11.7        0.0        0.0        0.0        0.0        0.0        0.0        0.0        0.0        0.0        0.0        0.0        0.0      0.1       0.2      25.1      28.1      31.1    422.57
     5     7  2024     5     1     267.6     0.0      0.0    0.0    0.0    0.0      0.0      0.0   -9.90      0.3      0.3     93      0.0      0.0   100      0.3     0.3      93     19.2    0.32     -9     -9     -9      0     -9     0.0     0.0      0    -9.00      0.0      0.0      0.0   100     0.0     0.000    -9.9    0.000    0.000      -9        0.00    0.000    0.000     267.6    267.6    0.32    36.0     133.5      36.9      32.8      13.3      16.5       7.4    0.000     0.000     0.000     0.000     0.000    0.32     0.00    0.00      0   -9.90   -9.00       10.7       11.7       11.7       11.7       11.7       11.7       11.7       11.7       11.7       11.7       11.7       11.7        0.0        0.0        0.0        0.0        0.0        0.0        0.0        0.0        0.0        0.0        0.0        0.0      0.0       0.3      24.5      27.8      31.0    422.57
     6     7  2024     6     1     267.3     0.0      0.0    0.0    0.0    0.0      0.0      0.0   -9.90      0.4      0.3     86      0.0      0.0   100      0.4     0.3      86     19.1    0.36     -9     -9     -9      0     -9     0.0     0.0      0    -9.00      0.0      0.0      0.0   100     0.0     0.000    -9.9    0.000    0.000      -9        0.00    0.000    0.000     267.3    267.3    0.36    40.3     150.6      41.6      37.0      15.1      18.7       8.4    0.000     0.000     0.000     0.000     0.000    0.36     0.00    0.00      0   -9.90   -9.00       10.4       11.7       11.7       11.7       11.7       11.7       11.7       11.7       11.7       11.7       11.7       11.7        0.0        0.0        0.0        0.0        0.0        0.0        0.0        0.0        0.0        0.0        0.0        0.0      0.0       0.3      24.2      29.5      34.9    422.57
     7     7  2024     7     2     267.1     0.0      0.0    0.0    0.0    0.0      0.0      0.0   -9.90      0.2      0.2     92      0.0      0.0   100      0.2     0.2      92     19.0    0.40     -9      0      0      0      0     0.4     0.4      0     0.01      0.0      0.0      0.0   100    35.0     0.003    -9.9    0.000    0.000     100        0.00    0.000    0.000     267.1    267.1    0.40    44.5     166.4      46.0      34.2      16.6      16.6       9.3    0.000     0.000     0.000     0.000     0.000    0.40     0.00    0.00      0   -9.90   -9.00       10.2       11.7       11.7       11.7       11.7       11.7       11.7       11.7       11.7       11.7       11.7       11.7        0.0        0.0        0.0        0.0        0.0        0.0        0.0        0.0        0.0        0.0        0.0        0.0      0.0       0.2      25.6      27.0      28.5    422.57
     8     7  2024     8     2     269.2     2.3      0.0    0.0    2.3    0.0      0.0      0.0   -9.90      0.2      0.2    100      0.0      0.0   100      0.2     0.2     100     19.1    0.43     -9      0      0      0      0     0.5     0.5      0     0.01      0.0      0.0      0.0   100    35.0     0.006    -9.9    0.000    0.000     100        0.00    0.000    0.000     269.2    269.2    0.43    50.7     181.2      50.1      37.3      18.2      18.2      10.2    0.000     0.000     0.000     0.000     0.000    0.43     0.00    0.00      0   -9.90   -9.00       12.3       11.7       11.7       11.7       11.7       11.7       11.7       11.7       11.7       11.7       11.7       11.7        0.0        0.0        0.0        0.0        0.0        0.0        0.0        0.0        0.0        0.0        0.0        0.0      2.3       0.2      24.9      27.1      29.2    422.57
     9     7  2024     9     2     269.1     0.4      0.0    0.0    0.4    0.0      0.2      0.0   -9.90      0.3      0.3    100      0.0      0.0   100      0.3     0.3     100     19.2    0.47      0      0      0      0      0     0.6     0.6      0     0.01      0.0      0.0      0.0   100    35.0     0.010    -9.9    0.000    0.000     100        0.00    0.000    0.000     269.1    269.1    0.47    54.3     195.4      54.0      40.4      19.7      19.7      11.0    0.000     0.000     0.000     0.000     0.000    0.47     0.00    0.00      0   -9.90   -9.00       11.8       11.7       11.8       11.7       11.7       11.7       11.7       11.7       11.7       11.7       11.7       11.7        0.0        0.0        0.0        0.0        0.0        0.0        0.0        0.0        0.0        0.0        0.0        0.0      0.4       0.3      24.3      27.8      31.3    422.57
    10     7  2024    10     2     268.5     0.0      0.0    0.0    0.0    0.0      0.2      0.0   -9.90      0.3      0.3     98      0.0      0.0   100      0.3     0.3      98     18.8    0.50      0      0      0      0      0     0.7     0.7      0     0.01      0.0      0.0      0.0   100    35.0     0.014    -9.9    0.000    0.000     100        0.00    0.000    0.000     268.5    268.5    0.50    57.5     209.1      57.8      43.2      21.1      21.1      11.9    0.000     0.000     0.000     0.000     0.000    0.50     0.00    0.00      0   -9.90   -9.00       11.4       11.7       11.7       11.7       11.7       11.7       11.7       11.7       11.7       11.7       11.7       11.7        0.0        0.0        0.0        0.0        0.0        0.0        0.0        0.0        0.0        0.0        0.0        0.0      0.0       0.3      23.6      27.9      32.2    422.57
    11     7  2024    11     2     268.0     0.0      0.0    0.0    0.0    0.0      0.1      0.0   -9.90      0.3      0.3     91      0.0      0.0   100      0.3     0.3      91     19.7    0.53      0      0      0      0      0     0.8     0.8      0     0.01      0.0      0.0      0.0   100    35.0     0.019    -9.9    0.000    0.000     100        0.00    0.000    0.000     268.0    268.0    0.53    60.8     222.3      61.4      46.0      22.5      22.5      12.6    0.000     0.000     0.000     0.000     0.000    0.53     0.00    0.00      0   -9.90   -9.00       11.1       11.7       11.7       11.7       11.7       11.7       11.7       11.7       11.7       11.7       11.7       11.7        0.0        0.0        0.0        0.0        0.0        0.0        0.0        0.0        0.0        0.0        0.0        0.0      0.0       0.3      25.3      29.4      33.5    422.57
    12     7  2024    12     2     267.8     0.1      0.0    0.0    0.1    0.0      0.0      0.0   -9.90      0.2      0.2     98      0.0      0.0   100      0.2     0.2      98     20.3    0.56      0      0      0      0      0     1.0     1.0      0     0.02      0.0      0.0      0.0   100    35.0     0.026    -9.9    0.000    0.000     100        0.00    0.000    0.000     267.8    267.8    0.56    64.2     235.2      65.0      48.4      23.7      23.7      13.4    0.000     0.000     0.000     0.000     0.000    0.56     0.00    0.00      0   -9.90   -9.00       10.9       11.7       11.7       11.7       11.7       11.7       11.7       11.7       11.7       11.7       11.7       11.7        0.0        0.0        0.0        0.0        0.0        0.0        0.0        0.0        0.0        0.0        0.0        0.0      0.1       0.2      26.5      28.5      30.4    422.57
    13     7  2024    13     2     267.9     0.4      0.0    0.0    0.4    0.0      0.0      0.0   -9.90      0.3      0.3    100      0.0      0.0   100      0.3     0.3     100     19.8    0.59      0      0      0      0      0     1.2     1.2      0     0.02      0.0      0.0      0.0   100    35.0     0.033    -9.9    0.000    0.000     100        0.00    0.000    0.000     267.9    267.9    0.59    67.8     247.7      68.4      51.1      25.0      25.0      14.1    0.000     0.000     0.000     0.000     0.000    0.59     0.00    0.00      0   -9.90   -9.00       11.0       11.7       11.7       11.7       11.7       11.7       11.7       11.7       11.7       11.7       11.7       11.7        0.0        0.0        0.0        0.0        0.0        0.0        0.0        0.0        0.0        0.0        0.0        0.0      0.4       0.2      25.5      28.4      31.3    422.57
    14     7  2024    14     2     267.6     0.0      0.0    0.0    0.0    0.0      0.0      0.0   -9.90      0.3      0.3     94      0.0      0.0   100      0.3     0.3      94     19.4    0.62      0      0      0      0      0     1.4     1.4      0     0.02      0.0      0.0      0.0   100    35.0     0.041    -9.9    0.000    0.000     100        0.00    0.000    0.000     267.6    267.6    0.62    70.8     259.9      71.8      53.8      26.3      26.3      14.8    0.000     0.000     0.000     0.000     0.000    0.62     0.00    0.00      0   -9.90   -9.00       10.7       11.7       11.7       11.7       11.7       11.7       11.7       11.7       11.7       11.7       11.7       11.7        0.0        0.0        0.0        0.0        0.0        0.0        0.0        0.0        0.0        0.0        0.0        0.0      0.0       0.3      24.7      28.9      33.0    422.57
    15     7  2024    15     2     267.4     0.1      0.0    0.0    0.1    0.0      0.0      0.0   -9.90      0.3      0.3     99      0.0      0.0   100      0.3     0.3      99     19.8    0.65      0      0      0      0      0     1.6     1.6      0     0.03      0.0      0.0      0.0   100    35.0     0.051    -9.9    0.000    0.000     100        0.00    0.000    0.000     267.4    267.4    0.65    73.9     271.9      75.1      56.2      27.5      27.5      15.6    0.000     0.000     0.000     0.000     0.000    0.65     0.00    0.00      0   -9.90   -9.00       10.5       11.7       11.7       11.7       11.7       11.7       11.7       11.7       11.7       11.7       11.7       11.7        0.0        0.0        0.0        0.0        0.0        0.0        0.0        0.0        0.0        0.0        0.0        0.0      0.1       0.3      25.5      28.8      32.1    422.57
    16     7  2024    16     2     267.5     0.4      0.0    0.0    0.4    0.0      0.0      0.0   -9.90      0.3      0.3    100      0.0      0.0   100      0.3     0.3     100     20.0    0.67      0      0      0      0      0     1.9     1.9      0     0.03      0.0      0.0      0.0   100    35.0     0.063    -9.9    0.000    0.000     100        0.00    0.000    0.000     267.5    267.5    0.67    77.3     283.6      78.3      58.6      28.7      28.7      16.2    0.000     0.000     0.000     0.000     0.000    0.67     0.00    0.00      0   -9.90   -9.00       10.6       11.7       11.7       11.7       11.7       11.7       11.7       11.7       11.7       11.7       11.7       11.7        0.0        0.0        0.0        0.0        0.0        0.0        0.0        0.0        0.0        0.0        0.0        0.0      0.4       0.3      25.9      29.2      32.5    422.57
    17     7  2024    17     2     267.2     0.0      0.0    0.0    0.0    0.0      0.0      0.0   -9.90      0.3      0.3     96      0.0      0.0   100      0.3     0.3      97     19.8    0.70      0      0      0      0      0     2.3     2.3      0     0.04      0.0      0.0      0.0   100    35.0     0.077    -9.9    0.000    0.000     100        0.00    0.000    0.000     267.2    267.2    0.70    80.2     295.2      81.5      61.0      29.9      29.9      16.9    0.000     0.000     0.000     0.000     0.000    0.70     0.00    0.00      0   -9.90   -9.00       10.3       11.7       11.7       11.7       11.7       11.7       11.7       11.7       11.7       11.7       11.7       11.7        0.0        0.0        0.0        0.0        0.0        0.0        0.0        0.0        0.0        0.0        0.0        0.0      0.0       0.3      25.5      28.9      32.2    422.57
    18     7  2024    18     2     268.8     1.8      0.0    0.0    1.8    0.0      0.0      0.0   -9.90      0.3      0.3    100      0.0      0.0   100      0.3     0.3     100     19.6    0.73      0      0      0      0      0     2.7     2.7      0     0.05      0.0      0.0      0.0   100    35.0     0.094    -9.9    0.000    0.000     100        0.00    0.000    0.000     268.8    268.8    0.73    84.9     306.5      84.6      63.3      31.0      31.0      17.6    0.000     0.000     0.000     0.000     0.000    0.73     0.00    0.00      0   -9.90   -9.00       11.9       11.7       11.7       11.7       11.7       11.7       11.7       11.7       11.7       11.7       11.7       11.7        0.0        0.0        0.0        0.0        0.0        0.0        0.0        0.0        0.0        0.0        0.0        0.0      1.8       0.3      25.1      28.3      31.5    422.57
    19     7  2024    19     2     270.7     2.3      0.0    0.0    2.3    0.0      0.1      0.0   -9.90      0.3      0.3    100      0.0      0.0   100      0.3     0.3     100     19.5    0.75      0      0      0      0      0     3.2     3.2      0     0.06      0.0      0.0      0.0   100    35.0     0.113    -9.9    0.000    0.000     100        0.00    0.000    0.000     270.7    270.7    0.75    89.8     317.7      87.7      65.7      32.3      32.3      18.3    0.000     0.000     0.000     0.000     0.000    0.75     0.00    0.00      0   -9.90   -9.00       13.7       11.7       11.7       11.7       11.7       11.7       11.7       11.7       11.7       11.7       11.7       11.7        0.0        0.0        0.0        0.0        0.0        0.0        0.0        0.0        0.0        0.0        0.0        0.0      2.3       0.3      24.9      29.1      33.3    422.57
    20     7  2024    20     2     269.8     0.1      0.0    0.0    0.1    0.0      0.7      0.0   -9.90      0.2      0.2     96      0.0      0.0   100      0.3     0.3      97     20.4    0.78      0      0      0      0      0     3.7     3.7      0     0.06      0.0      0.0      0.0   100    35.0     0.136    -9.9    0.000    0.000     100        0.00    0.000    0.000     269.8    269.8    0.78    91.6     328.7      90.8      67.8      33.3      33.3      18.9    0.000     0.000     0.000     0.000     0.000    0.78     0.00    0.00      0   -9.90   -9.00       11.7       11.9       11.9       11.8       11.8       11.7       11.7       11.7       11.7       11.7       11.7       11.7        0.0        0.0        0.0        0.0        0.0        0.0        0.0        0.0        0.0        0.0        0.0        0.0      0.1       0.2      26.9      29.5      32.1    422.57
    21     7  2024    21     2     268.9     0.1      0.0    0.0    0.1    0.0      0.7      0.0   -9.90      0.3      0.3    100      0.0      0.0   100      0.3     0.3     100     20.1    0.81      0      0      0      0      0     4.4     4.4      0     0.08      0.0      0.0      0.0   100    35.0     0.163    -9.9    0.000    0.000     100        0.00    0.000    0.000     268.9    268.9    0.81    93.8     339.6      93.8      70.2      34.4      34.4      19.5    0.000     0.000     0.000     0.000     0.000    0.81     0.00    0.00      0   -9.90   -9.00       11.5       11.7       11.7       11.7       11.7       11.7       11.7       11.7       11.7       11.7       11.7       11.7        0.0        0.0        0.0        0.0        0.0        0.0        0.0        0.0        0.0        0.0        0.0        0.0      0.1       0.3      26.1      29.2      32.4    422.57
    22     7  2024    22     2     268.2     0.0      0.0    0.0    0.0    0.0      0.3      0.0   -9.90      0.3      0.3     94      0.0      0.0   100      0.3     0.3      94     19.9    0.83      0      0      0      0      0     5.2     5.2      0     0.09      0.0      0.0      0.0   100    35.0     0.194    -9.9    0.000    0.000     100        0.00    0.000    0.000     268.2    268.2    0.83    96.3     350.3      96.7      72.4      35.6      35.6      20.2    0.000     0.000     0.000     0.000     0.000    0.83     0.00    0.00      0   -9.90   -9.00       11.2       11.7       11.7       11.7       11.7       11.7       11.7       11.7       11.7       11.7       11.7       11.7        0.0        0.0        0.0        0.0        0.0        0.0        0.0        0.0        0.0        0.0        0.0        0.0      0.0       0.3      25.8      29.5      33.2    422.57
    23     7  2024    23     2     267.9     0.1      0.0    0.0    0.1    0.0      0.1      0.0   -9.90      0.2      0.2     99      0.0      0.0   100      0.3     0.3      99     20.4    0.86      0      0      0      0      0     6.1     6.1      0     0.10      0.0      0.0      0.0   100    35.0     0.231    -9.9    0.000    0.000     100        0.00    0.000    0.000     267.9    267.9    0.86    99.0     360.9      99.7      74.5      36.6      36.6      20.8    0.000     0.000     0.000     0.000     0.000    0.86     0.00    0.00      0   -9.90   -9.00       11.0       11.7       11.7       11.7       11.7       11.7       11.7       11.7       11.7       11.7       11.7       11.7        0.0        0.0        0.0        0.0        0.0        0.0        0.0        0.0        0.0        0.0        0.0        0.0      0.1       0.2      26.8      29.3      31.8    422.57
    24     7  2024    24     2     269.7     2.0      0.0    0.0    2.0    0.0      0.0      0.0   -9.90      0.2      0.2    100      0.0      0.0   100      0.3     0.3     100     20.3    0.88      0      0      0      0      0     7.2     7.2      0     0.12      0.0      0.0      0.0   100    35.0     0.274    -9.9    0.000    0.000     100        0.00    0.000    0.000     269.7    269.7    0.88   103.6     371.4     102.5      76.7      37.7      37.7      21.4    0.000     0.000     0.000     0.000     0.000    0.88     0.00    0.00      0   -9.90   -9.00       12.8       11.7       11.7       11.7       11.7       11.7       11.7       11.7       11.7       11.7       11.7       11.7        0.0        0.0        0.0        0.0        0.0        0.0        0.0        0.0        0.0        0.0        0.0        0.0      2.0       0.2      26.6      29.3      32.0    422.57
    25     7  2024    25     2     284.5    16.4      0.0    0.0   15.4    1.0      0.3      0.0   -9.90      0.2      0.2    100      0.0      0.0   100      0.2     0.2     100     19.2    0.91      0      0      0      0      0     8.5     8.5      0     0.14      0.0      0.0      0.0   100    35.0     0.324    -9.9    0.000    0.000     100        0.00    0.000    0.000     284.5    284.5    0.91   121.2     381.7     105.4      78.7      38.7      38.7      22.0    0.000     0.000     0.000     0.000     0.000    0.91     0.00    0.00      0   -9.90   -9.00       27.3       11.8       11.8       11.8       11.7       11.7       11.7       11.7       11.7       11.7       11.7       11.7        0.0        0.0        0.0        0.0        0.0        0.0        0.0        0.0        0.0        0.0        0.0        0.0     16.4       0.2      24.9      27.2      29.5    422.57
    26     7  2024    26     2     299.5    24.4      0.0    0.0   21.6    2.8      6.3      0.0   -9.90      0.2      0.2    100      0.0      0.0   100      0.3     0.3     100     19.6    0.93      0      0      0      0      0    10.0    10.0      0     0.17      0.0      0.0      0.0   100    35.0     0.383    -9.9    0.000    0.000     100        0.00    0.000    0.000     299.5    299.5    0.93   136.8     392.0     108.2      80.9      39.7      39.7      22.6    0.000     0.000     0.000     0.000     0.000    0.93     0.00    0.00      0   -9.90   -9.00       34.3       12.7       13.1       12.5       12.2       12.1       12.0       11.9       11.9       11.8       11.8       11.8        0.0        0.0        0.0        0.0        0.0        0.0        0.0        0.0        0.0        0.0        0.0        0.0     24.4       0.2      25.2      27.9      30.6    422.57
    27     7  2024    27     2     284.4     0.6      0.0    0.0    0.6    0.0     15.4      0.0   -9.90      0.2      0.2    100      0.0      0.0   100      0.3     0.3     100     20.0    0.95      0      0      0      0      0    11.8    11.8      0     0.20      0.0      0.0      0.0   100    35.0     0.452    -9.9    0.000    0.000     100        0.00    0.000    0.000     284.4    284.4    0.95   121.9     402.2     111.0      83.0      40.8      40.8      23.2    0.000     0.000     0.000     0.000     0.000    0.95     0.00    0.00      0   -9.90   -9.00       12.3       12.9       13.8       13.1       12.7       12.5       12.3       12.2       12.1       12.0       12.0       12.0        0.0        0.0        0.0        0.0        0.0        0.0        0.0        0.0        0.0        0.0        0.0        0.0      0.6       0.2      26.1      28.8      31.5    422.57
    28     7  2024    28     2     273.9     0.1      0.0    0.0    0.1    0.0     10.4      0.0   -9.90      0.2      0.2    100      0.1      0.1   100      0.3     0.3     100     19.8    0.98      0      0      0      0      0    14.0    14.0      0     0.23      0.1      0.1      0.1   100    35.0     0.532    -9.9    0.000    0.000     100        0.00    0.000    0.000     273.9    273.9    0.98   116.5     412.2     113.8      85.1      41.8      41.8      23.8    0.000     0.000     0.000     0.000     0.000    0.98     0.00    0.00      0   -9.90   -9.00       11.6       11.9       12.2       12.0       12.0       12.0       12.0       11.9       11.9       11.9       11.9       11.9        0.0        0.0        0.0        0.0        0.0        0.0        0.0        0.0        0.0        0.0        0.0        0.0      0.1       0.2      25.7      28.3      30.9    422.57
    29     7  2024    29     2     269.7     0.0      0.0    0.0    0.0    0.0      3.9      0.0   -9.90      0.2      0.2     97      0.1      0.1   100      0.3     0.3      98     19.4    1.00      0      0      0      0      0    16.5    16.5      0     0.27      0.1      0.1      0.1   100    35.0     0.626    -9.9    0.000    0.000     100        0.00    0.000    0.000     269.7    269.7    1.00   116.8     422.2     116.6      87.2      42.9      42.9      24.4    0.000     0.000     0.000     0.000     0.000    1.00     0.00    0.00      0   -9.90   -9.00       11.3       11.7       11.8       11.8       11.8       11.8       11.8       11.8       11.8       11.8       11.8       11.8        0.0        0.0        0.0        0.0        0.0        0.0        0.0        0.0        0.0        0.0        0.0        0.0      0.0       0.3      24.8      28.2      31.5    422.57
    30     7  2024    30     2     268.3     0.0      0.0    0.0    0.0    0.0      1.1      0.0   -9.90      0.2      0.2    100      0.1      0.1   100      0.3     0.3     100     19.6    1.02      0      0      0      0      0    19.4    19.4      0     0.31      0.1      0.1      0.1   100    35.0     0.734    -9.9    0.000    0.000     100        0.00    0.000    0.000     268.3    268.3    1.02   118.8     432.0     119.3      89.3      43.9      43.9      25.0    0.000     0.000     0.000     0.000     0.000    1.02     0.00    0.00      0   -9.90   -9.00       11.0       11.7       11.7       11.7       11.7       11.7       11.7       11.7       11.7       11.7       11.7       11.7        0.0        0.0        0.0        0.0        0.0        0.0        0.0        0.0        0.0        0.0        0.0        0.0      0.0       0.3      25.2      28.3      31.4    422.57
    31     7  2024    31     2     267.8     0.1      0.0    0.0    0.1    0.0      0.3      0.0   -9.90      0.2      0.2     97      0.1      0.1   100      0.3     0.3      98     19.9    1.05      0      0      0      0      0    22.9    22.9      0     0.36      0.1      0.1      0.1   100    35.0     0.859    -9.9    0.000    0.000     100        0.00    0.000    0.000     267.8    267.8    1.05   121.1     441.8     122.0      91.3      44.9      44.9      25.6    0.000     0.000     0.000     0.000     0.000    1.05     0.00    0.00      0   -9.90   -9.00       10.8       11.7       11.7       11.7       11.7       11.7       11.7       11.7       11.7       11.7       11.7       11.7        0.0        0.0        0.0        0.0        0.0        0.0        0.0        0.0        0.0        0.0        0.0        0.0      0.1       0.3      25.7      28.6      31.6    422.57
     1     8  2024    32     2     267.5     0.0      0.0    0.0    0.0    0.0      0.1      0.0   -9.90      0.2      0.2    100      0.1      0.1   100      0.3     0.3     100     19.4    1.07      0      0      0      0      0    27.0    27.0      0     0.41      0.1      0.1      0.1   100    35.0     1.003    -9.9    0.000    0.000     100        0.00    0.000    0.000     267.5    267.5    1.07   123.5     451.5     124.7      93.3      45.9      45.9      26.1    0.000     0.000     0.000     0.000     0.000    1.07     0.00    0.00      0   -9.90   -9.00       10.6       11.7       11.7       11.7       11.7       11.7       11.7       11.7       11.7       11.7       11.7       11.7        0.0        0.0        0.0        0.0        0.0        0.0        0.0        0.0        0.0        0.0        0.0        0.0      0.0       0.3      24.9      28.2      31.5    422.57
     2     8  2024    33     2     267.2     0.0      0.0    0.0    0.0    0.0      0.0      0.0   -9.90      0.2      0.2     97      0.1      0.1   100      0.3     0.3      98     19.8    1.09      0      0      0      0      0    31.8    31.8      0     0.47      0.1      0.1      0.1   100    35.0     1.168    -9.9    0.000    0.000     100        0.00    0.000    0.000     267.2    267.2    1.09   125.9     461.2     127.3      95.3      46.9      46.9      26.7    0.000     0.000     0.000     0.000     0.000    1.09     0.00    0.00      0   -9.90   -9.00       10.3       11.7       11.7       11.7       11.7       11.7       11.7       11.7       11.7       11.7       11.7       11.7        0.0        0.0        0.0        0.0        0.0        0.0        0.0        0.0        0.0        0.0        0.0        0.0      0.0       0.3      25.7      28.7      31.7    422.57
     3     8  2024    34     2     266.9     0.0      0.0    0.0    0.0    0.0      0.0      0.0   -9.90      0.2      0.2    100      0.2      0.2   100      0.3     0.3     100     19.4    1.12      0      0      0      0      0    37.5    37.5      0     0.54      0.2      0.2      0.2   100    35.0     1.357    -9.9    0.000    0.000     100        0.00    0.000    0.000     266.9    266.9    1.12   128.3     470.7     130.0      97.4      47.9      47.9      27.3    0.000     0.000     0.000     0.000     0.000    1.12     0.00    0.00      0   -9.90   -9.00       10.0       11.7       11.7       11.7       11.7       11.7       11.7       11.7       11.7       11.7       11.7       11.7        0.0        0.0        0.0        0.0        0.0        0.0        0.0        0.0        0.0        0.0        0.0        0.0      0.0       0.3      24.8      28.7      32.6    422.57
     4     8  2024    35     2     266.9     0.1      0.0    0.0    0.1    0.0      0.0      0.0   -9.90      0.1      0.1    100      0.1      0.1   100      0.2     0.2     100     18.6    1.14      0      0      0      0      0    44.3    44.3      0     0.61      0.1      0.1      0.1   100    35.0     1.571    -9.9    0.000    0.000     100        0.00    0.000    0.000     266.9    266.9    1.14   130.9     480.2     132.6      98.8      48.6      48.6      27.8    0.000     0.000     0.000     0.000     0.000    1.14     0.00    0.00      0   -9.90   -9.00        9.9       11.7       11.7       11.7       11.7       11.7       11.7       11.7       11.7       11.7       11.7       11.7        0.0        0.0        0.0        0.0        0.0        0.0        0.0        0.0        0.0        0.0        0.0        0.0      0.1       0.1      25.5      26.6      27.6    422.57
     5     8  2024    36     2     286.7    21.2      0.0    0.0   20.1    1.2      0.0      0.0   -9.90      0.1      0.1    100      0.2      0.2   100      0.2     0.2     100     19.4    1.16      0      0      0      0      0    51.8    51.8      0     0.69      0.2      0.2      0.2   100    35.0     1.812    -9.9    0.000    0.000     100        0.00    0.000    0.000     286.7    286.7    1.16   153.3     489.6     135.2     101.0      49.7      49.7      28.4    0.000     0.000     0.000     0.000     0.000    1.16     0.00    0.00      0   -9.90   -9.00       30.1       11.7       11.7       11.7       11.7       11.7       11.7       11.7       11.7       11.7       11.7       11.7        0.0        0.0        0.0        0.0        0.0        0.0        0.0        0.0        0.0        0.0        0.0        0.0     21.2       0.2      25.2      27.4      29.6    422.57
     6     8  2024    37     2     289.7    10.6      0.0    0.0   10.3    0.2      7.1      0.0   -9.90      0.1      0.1    100      0.2      0.2   100      0.3     0.3     100     19.8    1.18      0      0      0      0      0    58.4    58.4      0     0.75      0.2      0.2      0.2   100    35.0     2.075    -9.9    0.000    0.000     100        0.00    0.000    0.000     289.7    289.7    1.18   157.1     499.0     137.8     103.1      50.7      50.7      28.9    0.000     0.000     0.000     0.000     0.000    1.18     0.00    0.00      0   -9.90   -9.00       23.0       12.8       13.3       12.6       12.3       12.2       12.0       12.0       11.9       11.9       11.8       11.8        0.0        0.0        0.0        0.0        0.0        0.0        0.0        0.0        0.0        0.0        0.0        0.0     10.6       0.2      25.6      28.5      31.3    422.57
     7     8  2024    38     2     281.4     2.7      0.0    0.0    2.7    0.0     10.8      0.0   -9.90      0.1      0.1    100      0.2      0.2   100      0.3     0.3     100     20.1    1.20      0      0      0      0      0    64.0    64.0      0     0.80      0.2      0.2      0.2   100    35.0     2.354    -9.9    0.000    0.000     100        0.00    0.000    0.000     281.4    281.4    1.20   150.6     508.3     140.3     105.0      51.7      51.7      29.5    0.000     0.000     0.000     0.000     0.000    1.20     0.00    0.00      0   -9.90   -9.00       14.6       12.6       12.9       12.5       12.3       12.2       12.1       12.1       12.0       11.9       11.9       11.9        0.0        0.0        0.0        0.0        0.0        0.0        0.0        0.0        0.0        0.0        0.0        0.0      2.7       0.2      26.2      29.0      31.7    422.57
     8     8  2024    39     2     277.1     3.7      0.0    0.0    3.7    0.0      7.7      0.0   -9.90      0.1      0.1    100      0.2      0.2   100      0.3     0.3     100     20.0    1.23      0      0      0      0      0    68.8    68.8      0     0.84      0.2      0.2      0.2   100    35.0     2.647    -9.9    0.000    0.000     100        0.00    0.000    0.000     277.1    277.1    1.23   149.9     517.5     142.9     106.9      52.6      52.6      30.0    0.000     0.000     0.000     0.000     0.000    1.23     0.00    0.00      0   -9.90   -9.00       15.6       12.0       12.1       12.0       12.0       11.9       11.9       11.9       11.9       11.8       11.8       11.8        0.0        0.0        0.0        0.0        0.0        0.0        0.0        0.0        0.0        0.0        0.0        0.0      3.7       0.3      25.9      29.0      32.0    422.57
     9     8  2024    40     2     273.4     1.3      0.0    0.0    1.3    0.0      4.8      0.0   -9.90      0.0      0.0    100      0.2      0.2   100      0.3     0.3     100     20.4    1.25      0      0      0      0      0    72.8    72.8      0     0.87      0.2      0.2      0.2   100    35.0     2.950    -9.9    0.000    0.000     100        0.00    0.000    0.000     273.4    273.4    1.25   149.3     526.7     145.4     108.7      53.5      53.5      30.6    0.000     0.000     0.000     0.000     0.000    1.25     0.00    0.00      0   -9.90   -9.00       12.9       12.0       12.1       12.0       12.0       11.9       11.8       11.8       11.8       11.8       11.8       11.8        0.0        0.0        0.0        0.0        0.0        0.0        0.0        0.0        0.0        0.0        0.0        0.0      1.3       0.2      26.9      29.4      32.0    422.57
    10     8  2024    41     2     270.7     0.4      0.0    0.0    0.4    0.0      2.9      0.0   -9.90      0.0      0.0    100      0.2      0.2   100      0.3     0.3     100     20.4    1.27      0      0      0      0      0    76.2    76.2      0     0.89      0.2      0.2      0.2   100    35.0     3.263    -9.9    0.000    0.000     100        0.00    0.000    0.000     270.7    270.7    1.27   149.5     535.8     147.9     110.6      54.5      54.5      31.1    0.000     0.000     0.000     0.000     0.000    1.27     0.00    0.00      0   -9.90   -9.00       12.0       11.8       11.9       11.8       11.8       11.8       11.8       11.8       11.8       11.8       11.8       11.7        0.0        0.0        0.0        0.0        0.0        0.0        0.0        0.0        0.0        0.0        0.0        0.0      0.4       0.2      26.7      29.3      31.8    422.57
    11     8  2024    42     2     269.0     0.0      0.0    0.0    0.0    0.0      1.4      0.0   -9.90      0.0      0.0    100      0.3      0.3   100      0.3     0.3     100     19.7    1.29      0      0      0      0      0    79.1    79.1      0     0.91      0.3      0.3      0.3   100    35.0     3.584    -9.9    0.000    0.000     100        0.00    0.000    0.000     269.0    269.0    1.29   150.6     544.9     150.4     112.7      55.5      55.5      31.6    0.000     0.000     0.000     0.000     0.000    1.29     0.00    0.00      0   -9.90   -9.00       11.4       11.7       11.7       11.7       11.7       11.7       11.7       11.7       11.7       11.7       11.7       11.7        0.0        0.0        0.0        0.0        0.0        0.0        0.0        0.0        0.0        0.0        0.0        0.0      0.0       0.3      25.4      29.1      32.8    422.57
    12     8  2024    43     2     269.5     1.3      0.0    0.0    1.3    0.0      0.5      0.0   -9.90      0.0      0.0    100      0.3      0.3   100      0.3     0.3     100     20.0    1.31      0      0      0      0      0    81.6    81.6      0     0.93      0.3      0.3      0.3   100    35.0     3.910    -9.9    0.000    0.000     100        0.00    0.000    0.000     269.5    269.5    1.31   153.8     553.9     152.9     114.5      56.4      56.4      32.2    0.000     0.000     0.000     0.000     0.000    1.31     0.00    0.00      0   -9.90   -9.00       12.5       11.7       11.7       11.7       11.7       11.7       11.7       11.7       11.7       11.7       11.7       11.7        0.0        0.0        0.0        0.0        0.0        0.0        0.0        0.0        0.0        0.0        0.0        0.0      1.3       0.3      25.9      29.2      32.6    422.57
    13     8  2024    44     2     269.2     0.3      0.0    0.0    0.3    0.0      0.4      0.0   -9.90      0.0      0.0    100      0.2      0.2   100      0.3     0.3     100     20.5    1.33      0      0      0      0      0    83.7    83.7      0     0.95      0.2      0.2      0.2   100    35.0     4.242    -9.9    0.000    0.000     100        0.00    0.000    0.000     269.2    269.2    1.33   155.9     562.8     155.4     116.3      57.2      57.2      32.7    0.000     0.000     0.000     0.000     0.000    1.33     0.00    0.00      0   -9.90   -9.00       11.8       11.8       11.8       11.7       11.7       11.7       11.7       11.7       11.7       11.7       11.7       11.7        0.0        0.0        0.0        0.0        0.0        0.0        0.0        0.0        0.0        0.0        0.0        0.0      0.3       0.2      27.0      29.7      32.3    422.57
    14     8  2024    45     2     268.9     0.3      0.0    0.0    0.3    0.0      0.4      0.0   -9.90      0.0      0.0    100      0.2      0.2   100      0.2     0.2     100     20.1    1.35      0      0      0      0      0    85.4    85.4      0     0.96      0.2      0.2      0.2   100    35.0     4.578    -9.9    0.000    0.000     100        0.00    0.000    0.000     268.9    268.9    1.35   158.1     571.7     157.8     118.0      58.1      58.1      33.2    0.000     0.000     0.000     0.000     0.000    1.35     0.00    0.00      0   -9.90   -9.00       11.8       11.7       11.7       11.7       11.7       11.7       11.7       11.7       11.7       11.7       11.7       11.7        0.0        0.0        0.0        0.0        0.0        0.0        0.0        0.0        0.0        0.0        0.0        0.0      0.3       0.2      26.2      28.6      31.0    422.57
    15     8  2024    46     2     268.5     0.1      0.0    0.0    0.1    0.0      0.2      0.0   -9.90      0.0      0.0    100      0.3      0.3   100      0.3     0.3     100     19.9    1.37      0      0      0      0      0    86.9    86.9      0     0.97      0.3      0.3      0.3   100    35.0     4.917    -9.9    0.000    0.000     100        0.00    0.000    0.000     268.5    268.5    1.37   160.2     580.6     160.3     120.0      59.1      59.1      33.8    0.000     0.000     0.000     0.000     0.000    1.37     0.00    0.00      0   -9.90   -9.00       11.5       11.7       11.7       11.7       11.7       11.7       11.7       11.7       11.7       11.7       11.7       11.7        0.0        0.0        0.0        0.0        0.0        0.0        0.0        0.0        0.0        0.0        0.0        0.0      0.1       0.3      25.8      29.0      32.2    422.57
    16     8  2024    47     2     268.8     0.6      0.0    0.0    0.6    0.0      0.1      0.0   -9.90      0.0      0.0    100      0.2      0.2   100      0.3     0.3     100     20.1    1.40      0      0      0      0      0    88.2    88.2      0     0.98      0.2      0.2      0.2   100    35.0     5.260    -9.9    0.000    0.000     100        0.00    0.000    0.000     268.8    268.8    1.40   162.9     589.4     162.7     121.8      60.0      60.0      34.3    0.000     0.000     0.000     0.000     0.000    1.40     0.00    0.00      0   -9.90   -9.00       11.9       11.7       11.7       11.7       11.7       11.7       11.7       11.7       11.7       11.7       11.7       11.7        0.0        0.0        0.0        0.0        0.0        0.0        0.0        0.0        0.0        0.0        0.0        0.0      0.6       0.2      26.1      28.8      31.5    422.57
    17     8  2024    48     2     271.7     3.2      0.0    0.0    3.2    0.0      0.1      0.0   -9.90      0.0      0.0    100      0.2      0.2   100      0.2     0.2     100     19.0    1.42      0      0      0      0      0    89.3    89.3      0     0.98      0.2      0.2      0.2   100    35.0     5.605    -9.9    0.000    0.000     100        0.00    0.000    0.000     271.7    271.7    1.42   168.2     598.2     165.1     123.1      60.6      60.6      34.8    0.000     0.000     0.000     0.000     0.000    1.42     0.00    0.00      0   -9.90   -9.00       14.8       11.7       11.7       11.7       11.7       11.7       11.7       11.7       11.7       11.7       11.7       11.7        0.0        0.0        0.0        0.0        0.0        0.0        0.0        0.0        0.0        0.0        0.0        0.0      3.2       0.2      25.8      27.0      28.2    422.57
    18     8  2024    49     2     271.4     1.0      0.0    0.0    1.0    0.0      1.1      0.0   -9.90      0.0      0.0    100      0.2      0.2   100      0.2     0.2     100     20.2    1.44      0      0      0      0      0    90.2    90.2      0     0.99      0.2      0.2      0.2   100    35.0     5.952    -9.9    0.000    0.000     100        0.00    0.000    0.000     271.4    271.4    1.44   170.1     606.9     167.5     125.3      61.7      61.7      35.3    0.000     0.000     0.000     0.000     0.000    1.44     0.00    0.00      0   -9.90   -9.00       12.6       11.9       12.0       11.9       11.8       11.8       11.8       11.7       11.7       11.7       11.7       11.7        0.0        0.0        0.0        0.0        0.0        0.0        0.0        0.0        0.0        0.0        0.0        0.0      1.0       0.2      26.4      29.0      31.6    422.57
    19     8  2024    50     2     276.9     7.2      0.0    0.0    7.2    0.0      1.5      0.0   -9.90      0.0      0.0    100      0.2      0.2   100      0.2     0.2     100     20.0    1.46      0      0      0      0      0    90.9    90.9      0     1.00      0.2      0.2      0.2   100    35.0     6.301    -9.9    0.000    0.000     100        0.00    0.000    0.000     276.9    276.9    1.46   178.0     615.5     169.9     127.0      62.5      62.5      35.8    0.000     0.000     0.000     0.000     0.000    1.46     0.00    0.00      0   -9.90   -9.00       18.9       11.8       11.8       11.8       11.8       11.8       11.8       11.7       11.7       11.7       11.7       11.7        0.0        0.0        0.0        0.0        0.0        0.0        0.0        0.0        0.0        0.0        0.0        0.0      7.2       0.2      26.1      28.0      30.0    422.57
    20     8  2024    51     2     295.5    25.0      0.0    0.0   22.0    3.0      3.2      0.0   -9.90      0.0      0.0    100      0.2      0.2   100      0.2     0.2     100     18.9    1.48      0      0      0      0      0    91.6    91.6      0     1.00      0.2      0.2      0.2   100    35.0     6.652    -9.9    0.000    0.000     100        0.00    0.000    0.000     295.5    295.5    1.48   198.7     624.2     172.3     128.4      63.2      63.2      36.3    0.000     0.000     0.000     0.000     0.000    1.48     0.00    0.00      0   -9.90   -9.00       34.8       12.3       12.4       12.1       11.9       11.9       11.8       11.8       11.8       11.8       11.8       11.8        0.0        0.0        0.0        0.0        0.0        0.0        0.0        0.0        0.0        0.0        0.0        0.0     25.0       0.1      25.9      26.9      28.0    422.57
    21     8  2024    52     2     296.2    13.7      0.0    0.0   13.1    0.6     12.2      0.0   -9.90      0.0      0.0    100      0.3      0.3   100      0.3     0.3     100     19.4    1.50      0      0      0      0      0    92.1    92.1      0     1.00      0.3      0.3      0.3   100    35.0     7.003    -9.9    0.000    0.000     100        0.00    0.000    0.000     296.2    296.2    1.50   200.4     632.8     174.7     130.7      64.4      64.4      36.8    0.000     0.000     0.000     0.000     0.000    1.50     0.00    0.00      0   -9.90   -9.00       25.7       12.9       13.8       13.0       12.6       12.4       12.2       12.1       12.0       12.0       11.9       11.9        0.0        0.0        0.0        0.0        0.0        0.0        0.0        0.0        0.0        0.0        0.0        0.0     13.7       0.2      24.9      27.7      30.4    422.57
    22     8  2024    53     2     283.9     2.9      0.0    0.0    2.9    0.0     14.9      0.0   -9.90      0.0      0.0    100      0.3      0.3   100      0.3     0.3     100     19.9    1.52      0      0      0      0      0    92.6    92.6      0     1.01      0.3      0.3      0.3   100    35.0     7.356    -9.9    0.000    0.000     100        0.00    0.000    0.000     283.9    283.9    1.52   190.2     641.3     177.0     132.5      65.3      65.3      37.3    0.000     0.000     0.000     0.000     0.000    1.52     0.00    0.00      0   -9.90   -9.00       14.8       12.7       13.1       12.7       12.5       12.3       12.2       12.2       12.0       12.0       12.0       11.9        0.0        0.0        0.0        0.0        0.0        0.0        0.0        0.0        0.0        0.0        0.0        0.0      2.9       0.3      25.8      28.7      31.7    422.57
    23     8  2024    54     2     276.1     2.1      0.0    0.0    2.1    0.0      9.6      0.0   -9.90      0.0      0.0    100      0.3      0.3   100      0.3     0.3     100     20.0    1.54      0      0      0      0      0    93.0    93.0      0     1.01      0.3      0.3      0.3   100    35.0     7.710    -9.9    0.000    0.000     100        0.00    0.000    0.000     276.1    276.1    1.54   185.7     649.8     179.4     134.4      66.3      66.3      37.8    0.000     0.000     0.000     0.000     0.000    1.54     0.00    0.00      0   -9.90   -9.00       13.9       12.1       12.1       12.1       12.0       12.0       11.9       11.9       11.9       11.9       11.9       11.8        0.0        0.0        0.0        0.0        0.0        0.0        0.0        0.0        0.0        0.0        0.0        0.0      2.1       0.3      26.1      29.4      32.6    422.57
    24     8  2024    55     2     271.4     0.2      0.0    0.0    0.2    0.0      4.7      0.0   -9.90      0.0      0.0    100      0.2      0.2   100      0.2     0.2     100     18.7    1.56      0      0      0      0      0    93.3    93.3      0     1.01      0.2      0.2      0.2   100    35.0     8.064    -9.9    0.000    0.000     100        0.00    0.000    0.000     271.4    271.4    1.56   183.9     658.3     181.7     135.8      66.9      66.9      38.3    0.000     0.000     0.000     0.000     0.000    1.56     0.00    0.00      0   -9.90   -9.00       11.8       11.9       12.0       11.9       11.9       11.8       11.8       11.8       11.8       11.8       11.8       11.8        0.0        0.0        0.0        0.0        0.0        0.0        0.0        0.0        0.0        0.0        0.0        0.0      0.2       0.2      24.5      26.7      28.9    422.57
    25     8  2024    56     3     269.3     0.2      0.0    0.0    0.2    0.0      1.9      0.0   -9.90      0.0      0.0    100      0.3      0.3   100      0.3     0.3     100     20.1    1.58      0      0      0      0      0    93.5    93.5      0     1.01      0.3      0.3      0.3   100    35.0     8.420    -9.9    0.000    0.000     100        0.00    0.000    0.000     269.3    269.3    1.58   184.6     666.7     184.0     137.8      67.9      67.9      38.8    0.000     0.000     0.000     0.000     0.000    1.58     0.00    0.00      0   -9.90   -9.00       11.6       11.7       11.8       11.7       11.7       11.7       11.7       11.7       11.7       11.7       11.7       11.7        0.0        0.0        0.0        0.0        0.0        0.0        0.0        0.0        0.0        0.0        0.0        0.0      0.2       0.3      26.2      29.2      32.3    422.57
    26     8  2024    57     3     270.2     1.7      0.0    0.0    1.7    0.0      0.6      0.0   -9.90      0.0      0.0    100      0.3      0.3   100      0.3     0.3     100     19.4    1.60      0      0      0      0      0    93.7    93.7      0     1.01      0.3      0.3      0.3   100    35.0     8.775    -9.9    0.000    0.000     100        0.00    0.000    0.000     270.2    270.2    1.60   187.9     675.1     186.4     139.6      68.8      68.8      39.3    0.000     0.000     0.000     0.000     0.000    1.60     0.00    0.00      0   -9.90   -9.00       13.1       11.7       11.7       11.7       11.7       11.7       11.7       11.7       11.7       11.7       11.7       11.7        0.0        0.0        0.0        0.0        0.0        0.0        0.0        0.0        0.0        0.0        0.0        0.0      1.7       0.3      24.8      28.1      31.4    422.57
    27     8  2024    58     3     273.0     3.7      0.0    0.0    3.7    0.0      0.6      0.0   -9.90      0.0      0.0    100      0.3      0.3   100      0.3     0.3     100     19.9    1.62      0      0      0      0      0    93.9    93.9      0     1.02      0.3      0.3      0.3   100    35.0     9.131     1.5    0.137    0.153     100        0.88    0.000    0.000     273.0    273.0    1.62   193.0     683.5     188.7     141.3      69.6      69.6      39.8    0.000     0.000     0.000     0.000     0.000    1.62     0.00    0.00      0   -9.90   -9.00       15.4       11.8       11.8       11.8       11.7       11.7       11.7       11.7       11.7       11.7       11.7       11.7        0.0        0.0        0.0        0.0        0.0        0.0        0.0        0.0        0.0        0.0        0.0        0.0      3.7       0.3      25.8      28.8      31.8    422.57
    28     8  2024    59     3     271.4     0.3      0.0    0.0    0.3    0.0      1.7      0.0   -9.90      0.0      0.0    100      0.2      0.2   100      0.2     0.2     100     20.6    1.64      0      0      0      0      0    94.0    94.0      0     1.02      0.2      0.2      0.2   100    35.0     9.487     1.8    0.175    0.194     100        1.10    0.000    0.000     271.4    271.4    1.64   193.5     691.8     191.0     142.8      70.4      70.4      40.3    0.000     0.000     0.000     0.000     0.000    1.64     0.00    0.00      0   -9.90   -9.00       11.9       12.0       12.1       12.0       11.9       11.8       11.8       11.8       11.7       11.7       11.7       11.7        0.0        0.0        0.0        0.0        0.0        0.0        0.0        0.0        0.0        0.0        0.0        0.0      0.3       0.2      27.1      29.4      31.7    422.57
    29     8  2024    60     3     269.6     0.1      0.0    0.0    0.1    0.0      1.7      0.0   -9.90      0.0      0.0    100      0.3      0.3   100      0.3     0.3     100     20.2    1.66      0      0      0      0      0    95.2    95.2      0     1.02      0.3      0.3      0.3   100    35.0     9.846     2.3    0.222    0.247     100        1.38    0.000    0.000     269.6    269.6    1.66   194.0     700.1     193.3     144.6      71.3      71.3      40.8    0.000     0.000     0.000     0.000     0.000    1.66     0.00    0.00      0   -9.90   -9.00       11.6       11.7       11.8       11.8       11.8       11.8       11.8       11.7       11.7       11.7       11.7       11.7        0.0        0.0        0.0        0.0        0.0        0.0        0.0        0.0        0.0        0.0        0.0        0.0      0.1       0.2      26.5      29.1      31.8    422.57
    30     8  2024    61     3     268.5     0.0      0.0    0.0    0.0    0.0      0.8      0.0   -9.90      0.0      0.0    100      0.3      0.3   100      0.3     0.3     100     19.7    1.68     -9      0      0      0      0    95.3    95.3      0     1.02      0.3      0.3      0.3   100    35.0    10.205     2.8    0.281    0.312     100        1.71    0.000    0.000     268.5    268.5    1.68   195.4     708.4     195.5     146.4      72.2      72.2      41.3    0.000     0.000     0.000     0.000     0.000    1.68     0.00    0.00      0   -9.90   -9.00       11.3       11.7       11.7       11.7       11.7       11.7       11.7       11.7       11.7       11.7       11.7       11.7        0.0        0.0        0.0        0.0        0.0        0.0        0.0        0.0        0.0        0.0        0.0        0.0      0.0       0.3      25.3      28.4      31.4    422.57
    31     8  2024    62     3     268.8     0.8      0.0    0.0    0.8    0.0      0.2      0.0   -9.90      0.0      0.0    100      0.3      0.3   100      0.3     0.3     100     20.0    1.70     -9      0      0      0      0    95.4    95.4      0     1.02      0.3      0.3      0.3   100    35.0    10.564     3.3    0.354    0.393     100        2.13    0.000    0.000     268.8    268.8    1.70   198.0     716.6     197.8     148.1      73.0      73.0      41.8    0.000     0.000     0.000     0.000     0.000    1.70     0.00    0.00      0   -9.90   -9.00       11.8       11.7       11.7       11.7       11.7       11.7       11.7       11.7       11.7       11.7       11.7       11.7        0.0        0.0        0.0        0.0        0.0        0.0        0.0        0.0        0.0        0.0        0.0        0.0      0.8       0.3      25.9      28.9      31.9    422.57
     1     9  2024    63     3     268.5     0.0      0.0    0.0    0.0    0.0      0.1      0.0   -9.90      0.0      0.0    100      0.3      0.3   100      0.3     0.3     100     20.0    1.71     -9      0      0      0      0    95.5    95.5      0     1.02      0.3      0.3      0.3   100    35.0    10.921     4.1    0.444    0.493     100        2.63    0.000    0.000     268.5    268.5    1.71   199.9     724.8     200.1     149.7      73.8      73.8      42.3    0.000     0.000     0.000     0.000     0.000    1.71     0.00    0.00      0   -9.90   -9.00       11.5       11.7       11.7       11.7       11.7       11.7       11.7       11.7       11.7       11.7       11.7       11.7        0.0        0.0        0.0        0.0        0.0        0.0        0.0        0.0        0.0        0.0        0.0        0.0      0.0       0.2      26.1      28.8      31.6    422.57
     2     9  2024    64     3     269.4     1.2      0.0    0.0    1.2    0.0      0.1      0.0   -9.90      0.0      0.0    100      0.3      0.3   100      0.3     0.3     100     19.9    1.73     -9      0      0      0      0    95.6    95.6      0     1.02      0.3      0.3      0.3   100    35.0    11.278     4.9    0.555    0.616     100        3.23    0.000    0.000     269.4    269.4    1.73   203.1     732.9     202.3     151.6      74.7      74.7      42.7    0.000     0.000     0.000     0.000     0.000    1.73     0.00    0.00      0   -9.90   -9.00       12.5       11.7       11.7       11.7       11.7       11.7       11.7       11.7       11.7       11.7       11.7       11.7        0.0        0.0        0.0        0.0        0.0        0.0        0.0        0.0        0.0        0.0        0.0        0.0      1.2       0.3      25.8      28.9      32.0    422.57
     3     9  2024    65     3     268.8     0.0      0.0    0.0    0.0    0.0      0.3      0.0   -9.90      0.0      0.0    100      0.3      0.3   100      0.3     0.3     100     20.4    1.75     -9      0      0      0      0    95.6    95.6      0     1.02      0.3      0.3      0.3   100    35.0    11.634     5.9    0.689    0.766     100        3.95    0.000    0.000     268.8    268.8    1.75   204.8     741.1     204.6     153.1      75.5      75.5      43.2    0.000     0.000     0.000     0.000     0.000    1.75     0.00    0.00      0   -9.90   -9.00       11.5       11.8       11.8       11.7       11.7       11.7       11.7       11.7       11.7       11.7       11.7       11.7        0.0        0.0        0.0        0.0        0.0        0.0        0.0        0.0        0.0        0.0        0.0        0.0      0.0       0.2      26.7      29.5      32.2    422.57
     4     9  2024    66     3     269.0     0.6      0.0    0.0    0.6    0.0      0.2      0.0   -9.90      0.0      0.0    100      0.2      0.2   100      0.2     0.2     100     20.5    1.77     -9      0      0      0      0    95.7    95.7      0     1.01      0.2      0.2      0.2   100    35.0    11.989     7.1    0.852    0.947     100        4.82    0.000    0.000     269.0    269.0    1.77   207.2     749.2     206.8     154.7      76.3      76.3      43.7    0.000     0.000     0.000     0.000     0.000    1.77     0.00    0.00      0   -9.90   -9.00       11.9       11.7       11.7       11.7       11.7       11.7       11.7       11.7       11.7       11.7       11.7       11.7        0.0        0.0        0.0        0.0        0.0        0.0        0.0        0.0        0.0        0.0        0.0        0.0      0.6       0.2      26.9      29.4      31.8    422.57
     5     9  2024    67     3     268.6     0.0      0.0    0.0    0.0    0.0      0.2      0.0   -9.90      0.0      0.0    100      0.2      0.2   100      0.2     0.2     100     20.2    1.79     -9      0      0      0      0    95.7    95.7      0     1.01      0.2      0.2      0.2   100    35.0    12.343     8.5    1.046    1.162     100        5.84    0.000    0.000     268.6    268.6    1.79   209.0     757.2     209.0     156.3      77.0      77.0      44.2    0.000     0.000     0.000     0.000     0.000    1.79     0.00    0.00      0   -9.90   -9.00       11.5       11.7       11.7       11.7       11.7       11.7       11.7       11.7       11.7       11.7       11.7       11.7        0.0        0.0        0.0        0.0        0.0        0.0        0.0        0.0        0.0        0.0        0.0        0.0      0.0       0.2      26.5      28.7      30.9    422.57
     6     9  2024    68     3     268.3     0.0      0.0    0.0    0.0    0.0      0.1      0.0   -9.90      0.0      0.0    100      0.2      0.2   100      0.2     0.2     100     19.9    1.81     -9      0      0      0      0    95.8    95.8      0     1.01      0.2      0.2      0.2   100    35.0    12.697    10.0    1.269    1.410     100        7.00    0.000    0.000     268.3    268.3    1.81   210.9     765.3     211.2     158.0      77.9      77.9      44.6    0.000     0.000     0.000     0.000     0.000    1.81     0.00    0.00      0   -9.90   -9.00       11.3       11.7       11.7       11.7       11.7       11.7       11.7       11.7       11.7       11.7       11.7       11.7        0.0        0.0        0.0        0.0        0.0        0.0        0.0        0.0        0.0        0.0        0.0        0.0      0.0       0.2      25.8      28.2      30.6    422.57
     7     9  2024    69     4     268.0     0.1      0.0    0.0    0.1    0.0      0.1      0.0   -9.90      0.0      0.0    100      0.3      0.3   100      0.3     0.3     100     19.2    1.83     -9      0      0      0      0    95.8    95.8      0     1.01      0.3      0.3      0.3   100    35.0    13.049    11.5    1.502    1.669     100        8.17    0.000    0.000     268.0    268.0    1.83   212.8     773.3     213.5     159.8      78.8      78.8      45.1    0.000     0.000     0.000     0.000     0.000    1.83     0.00    0.00      0   -9.90   -9.00       11.1       11.7       11.7       11.7       11.7       11.7       11.7       11.7       11.7       11.7       11.7       11.7        0.0        0.0        0.0        0.0        0.0        0.0        0.0        0.0        0.0        0.0        0.0        0.0      0.1       0.3      24.5      27.7      30.9    422.57
     8     9  2024    70     4     267.7     0.0      0.0    0.0    0.0    0.0      0.0      0.0   -9.90      0.0      0.0    100      0.3      0.3   100      0.3     0.3     100     19.2    1.85     -9      0      0      0      0    95.8    95.8      0     1.00      0.3      0.3      0.3   100    35.0    13.401    13.0    1.747    1.941     100        9.34    0.000    0.000     267.7    267.7    1.85   214.8     781.3     215.7     161.7      79.8      79.8      45.6    0.000     0.000     0.000     0.000     0.000    1.85     0.00    0.00      0   -9.90   -9.00       10.8       11.7       11.7       11.7       11.7       11.7       11.7       11.7       11.7       11.7       11.7       11.7        0.0        0.0        0.0        0.0        0.0        0.0        0.0        0.0        0.0        0.0        0.0        0.0      0.0       0.3      24.4      28.2      32.0    422.57
     9     9  2024    71     4     268.1     0.7      0.0    0.0    0.7    0.0      0.0      0.0   -9.90      0.0      0.0    100      0.3      0.3   100      0.3     0.3     100     19.5    1.87     -9      0      0      0      0    95.9    95.9      0     1.00      0.3      0.3      0.3   100    35.0    13.751    14.6    2.001    2.224     100       10.56    0.000    0.000     268.1    268.1    1.87   217.4     789.2     217.9     163.1      80.4      80.4      46.1    0.000     0.000     0.000     0.000     0.000    1.87     0.00    0.00      0   -9.90   -9.00       11.2       11.7       11.7       11.7       11.7       11.7       11.7       11.7       11.7       11.7       11.7       11.7        0.0        0.0        0.0        0.0        0.0        0.0        0.0        0.0        0.0        0.0        0.0        0.0      0.7       0.2      25.0      27.8      30.6    422.57
    10     9  2024    72     4     270.1     2.3      0.0    0.0    2.3    0.0      0.0      0.0   -9.90      0.0      0.0    100      0.3      0.3   100      0.3     0.3     100     19.5    1.89     -9      0      0      0      0    95.9    95.9      0     1.00      0.3      0.3      0.3   100    35.0    14.101    16.1    2.267    2.518     100       11.79    0.000    0.000     270.1    270.1    1.89   221.6     797.2     220.0     164.9      81.4      81.4      46.5    0.000     0.000     0.000     0.000     0.000    1.89     0.00    0.00      0   -9.90   -9.00       13.2       11.7       11.7       11.7       11.7       11.7       11.7       11.7       11.7       11.7       11.7       11.7        0.0        0.0        0.0        0.0        0.0        0.0        0.0        0.0        0.0        0.0        0.0        0.0      2.3       0.3      24.9      28.5      32.1    422.57
    11     9  2024    73     4     277.1     7.8      0.0    0.0    7.7    0.0      0.5      0.0   -9.90      0.0      0.0    100      0.3      0.3   100      0.3     0.3     100     19.8    1.90     -9      0      0      0      0    95.9    95.9      0     0.99      0.3      0.3      0.3   100    35.0    14.449    17.6    2.542    2.825     100       13.04    0.000    0.000     277.1    277.1    1.90   230.7     805.1     222.2     166.5      82.1      82.1      47.0    0.000     0.000     0.000     0.000     0.000    1.90     0.00    0.00      0   -9.90   -9.00       19.5       11.8       11.8       11.8       11.7       11.7       11.7       11.7       11.7       11.7       11.7       11.7        0.0        0.0        0.0        0.0        0.0        0.0        0.0        0.0        0.0        0.0        0.0        0.0      7.8       0.3      25.6      28.8      32.0    422.57
    12     9  2024    74     4     276.7     3.1      0.0    0.0    3.1    0.0      3.2      0.0   -9.90      0.0      0.0    100      0.3      0.3   100      0.3     0.3     100     19.6    1.92     -9      0      0      0      0    95.9    95.9      0     0.99      0.3      0.3      0.3   100    35.0    14.797    19.1    2.828    3.143     100       14.31    0.000    0.000     276.7    276.7    1.92   232.3     813.0     224.4     168.1      82.9      82.9      47.5    0.000     0.000     0.000     0.000     0.000    1.92     0.00    0.00      0   -9.90   -9.00       15.0       12.3       12.4       12.1       12.0       11.9       11.9       11.8       11.8       11.8       11.8       11.8        0.0        0.0        0.0        0.0        0.0        0.0        0.0        0.0        0.0        0.0        0.0        0.0      3.1       0.3      25.1      28.5      31.8    422.57
    13     9  2024    75     4     272.3     0.0      0.0    0.0    0.0    0.0      4.1      0.0   -9.90      0.0      0.0    100      0.3      0.3   100      0.3     0.3     100     19.6    1.94     -9      0      0      0      0    95.9    95.9      0     0.99      0.3      0.3      0.3   100    35.0    15.144    20.6    3.125    3.472     100       15.60    0.000    0.000     272.3    272.3    1.94   230.0     820.8     226.6     169.7      83.7      83.7      47.9    0.000     0.000     0.000     0.000     0.000    1.94     0.00    0.00      0   -9.90   -9.00       11.9       12.0       12.1       12.0       11.9       11.9       11.8       11.8       11.8       11.8       11.8       11.8        0.0        0.0        0.0        0.0        0.0        0.0        0.0        0.0        0.0        0.0        0.0        0.0      0.0       0.3      25.2      28.5      31.7    422.57
    14     9  2024    76     4     269.8     0.2      0.0    0.0    0.2    0.0      2.4      0.0   -9.90      0.0      0.0    100      0.3      0.3   100      0.3     0.3     100     20.0    1.96     -9      0     -9      0      0    95.3    95.3      0     0.98      0.3      0.3      0.3   100    35.0    15.486    22.2    3.431    3.812     100       16.90    0.000    0.000     269.8    269.8    1.96   229.8     828.6     228.7     171.4      84.5      84.5      48.4    0.000     0.000     0.000     0.000     0.000    1.96     0.00    0.00      0   -9.90   -9.00       11.6       11.7       11.8       11.8       11.8       11.8       11.8       11.8       11.7       11.7       11.7       11.7        0.0        0.0        0.0        0.0        0.0        0.0        0.0        0.0        0.0        0.0        0.0        0.0      0.2       0.3      26.0      29.2      32.4    422.57
    15     9  2024    77     4     276.3     7.7      0.0    0.0    7.7    0.0      0.9      0.0   -9.90      0.0      0.0    100      0.2      0.2   100      0.2     0.2     100     19.4    1.98     -9      0     -9      0      0    94.6    94.6      0     0.96      0.2      0.2      0.2   100    35.0    15.823    23.7    3.746    4.162     100       18.27    0.000    0.000     276.3    276.3    1.98   238.6     836.4     230.9     172.6      85.1      85.1      48.8    0.000     0.000     0.000     0.000     0.000    1.98     0.00    0.00      0   -9.90   -9.00       19.2       11.7       11.7       11.7       11.7       11.7       11.7       11.7       11.7       11.7       11.7       11.7        0.0        0.0        0.0        0.0        0.0        0.0        0.0        0.0        0.0        0.0        0.0        0.0      7.7       0.2      25.2      27.4      29.5    422.57
    16     9  2024    78     4     276.2     3.0      0.0    0.0    3.0    0.0      2.9      0.0   -9.90      0.0      0.0    100      0.2      0.2   100      0.2     0.2     100     19.4    2.00     -9      0     -9      0      0    93.9    93.9      0     0.95      0.2      0.2      0.2   100    35.0    16.155    25.2    4.070    4.523     100       19.66    0.000    0.000     276.2    276.2    2.00   240.5     844.2     233.0     174.2      85.9      85.9      49.3    0.000     0.000     0.000     0.000     0.000    2.00     0.00    0.00      0   -9.90   -9.00       15.0       12.3       12.4       12.1       12.0       11.9       11.9       11.8       11.8       11.8       11.8       11.7        0.0        0.0        0.0        0.0        0.0        0.0        0.0        0.0        0.0        0.0        0.0        0.0      3.0       0.2      25.3      27.4      29.6    422.57
    17     9  2024    79     4     285.5    13.9      0.0    0.0   13.3    0.6      3.8      0.0   -9.90      0.0      0.0    100      0.2      0.2   100      0.2     0.2     100     18.3    2.01     -9      0     -9      0      0    93.0    93.0      0     0.93      0.2      0.2      0.2   100    35.0    16.481    26.7    4.403    4.892     100       21.10    0.000    0.000     285.5    285.5    2.01   251.9     852.0     235.2     175.5      86.5      86.5      49.8    0.000     0.000     0.000     0.000     0.000    2.01     0.00    0.00      0   -9.90   -9.00       25.5       12.0       12.1       12.0       11.9       11.9       11.8       11.8       11.8       11.8       11.8       11.8        0.0        0.0        0.0        0.0        0.0        0.0        0.0        0.0        0.0        0.0        0.0        0.0     13.9       0.2      24.9      26.3      27.8    422.57
    18     9  2024    80     4     298.1    22.6      0.0    0.0   20.3    2.3      7.4      0.0   -9.90      0.0      0.0    100      0.2      0.2   100      0.2     0.2     100     19.6    2.03     -9      0     -9      0      0    92.0    92.0      0     0.91      0.2      0.2      0.2   100    35.0    16.801    28.2    4.744    5.271     100       22.48    0.000    0.000     298.1    298.1    2.03   266.5     859.7     237.3     177.6      87.6      87.6      50.2    0.000     0.000     0.000     0.000     0.000    2.03     0.00    0.00      0   -9.90   -9.00       33.1       12.6       13.0       12.4       12.2       12.1       12.0       11.9       11.9       11.9       11.8       11.8        0.0        0.0        0.0        0.0        0.0        0.0        0.0        0.0        0.0        0.0        0.0        0.0     22.6       0.2      25.2      28.1      31.1    422.57
    19     9  2024    81     4     283.6     0.2      0.0    0.0    0.2    0.0     14.4      0.0   -9.90      0.0      0.0    100      0.2      0.2   100      0.2     0.2     100     19.7    2.05     -9      0     -9      0      0    90.9    90.9      0     0.89      0.2      0.2      0.2   100    35.0    17.113    29.8    5.092    5.658     100       23.87    0.000    0.000     283.6    283.6    2.05   253.9     867.4     239.4     179.2      88.4      88.4      50.7    0.000     0.000     0.000     0.000     0.000    2.05     0.00    0.00      0   -9.90   -9.00       12.5       12.9       13.7       13.0       12.6       12.4       12.3       12.1       12.1       12.0       12.0       11.9        0.0        0.0        0.0        0.0        0.0        0.0        0.0        0.0        0.0        0.0        0.0        0.0      0.2       0.2      25.5      28.1      30.7    422.57
    20     9  2024    82     4     275.2     1.5      0.0    0.0    1.5    0.0      9.7      0.0   -9.90      0.0      0.0    100      0.2      0.2   100      0.2     0.2     100     19.3    2.07     -9      0     -9      0      0    89.6    89.6      0     0.87      0.2      0.2      0.2   100    35.0    17.418    31.3    5.448    6.053     100       25.25    0.000    0.000     275.2    275.2    2.07   247.8     875.1     241.5     181.0      89.3      89.3      51.1    0.000     0.000     0.000     0.000     0.000    2.07     0.00    0.00      0   -9.90   -9.00       13.1       11.9       12.2       12.0       12.0       12.0       12.0       11.9       11.9       11.9       11.9       11.8        0.0        0.0        0.0        0.0        0.0        0.0        0.0        0.0        0.0        0.0        0.0        0.0      1.5       0.3      24.6      27.8      31.1    422.57
    21     9  2024    83     4     271.4     0.9      0.0    0.0    0.9    0.0      4.4      0.0   -9.90      0.0      0.0    100      0.2      0.2   100      0.2     0.2     100     19.6    2.09     -9      0     -9      0      0    88.2    88.2      0     0.84      0.2      0.2      0.2   100    35.0    17.714    32.8    5.810    6.455     100       26.64    0.000    0.000     271.4    271.4    2.09   246.4     882.8     243.7     182.5      90.0      90.0      51.6    0.000     0.000     0.000     0.000     0.000    2.09     0.00    0.00      0   -9.90   -9.00       12.5       11.8       11.8       11.8       11.8       11.8       11.8       11.8       11.8       11.8       11.8       11.8        0.0        0.0        0.0        0.0        0.0        0.0        0.0        0.0        0.0        0.0        0.0        0.0      0.9       0.3      25.3      28.3      31.4    422.57
    22     9  2024    84     4     283.1    14.3      0.0    0.0   13.6    0.7      1.8      0.0   -9.90      0.0      0.0    100      0.2      0.2   100      0.2     0.2     100     19.8    2.10     -9      0     -9      0      0    86.6    86.6      0     0.82      0.2      0.2      0.2   100    35.0    18.001    34.3    6.177    6.864     100       28.06    0.000    0.000     283.1    283.1    2.10   260.2     890.4     245.8     183.8      90.7      90.7      52.0    0.000     0.000     0.000     0.000     0.000    2.10     0.00    0.00      0   -9.90   -9.00       25.5       11.8       11.8       11.8       11.8       11.7       11.7       11.7       11.7       11.7       11.7       11.7        0.0        0.0        0.0        0.0        0.0        0.0        0.0        0.0        0.0        0.0        0.0        0.0     14.3       0.2      25.7      28.2      30.7    422.57
    23     9  2024    85     4     288.8    12.0      0.0    0.0   11.6    0.4      5.7      0.0   -9.90      0.0      0.0    100      0.2      0.2   100      0.3     0.3     100     19.5    2.12     -9      0     -9      0      0    84.8    84.8      0     0.79      0.2      0.2      0.2   100    35.0    18.277    35.8    6.550    7.278     100       29.41    0.000    0.000     288.8    288.8    2.12   267.9     898.0     247.9     185.9      91.8      91.8      52.5    0.000     0.000     0.000     0.000     0.000    2.12     0.00    0.00      0   -9.90   -9.00       24.4       12.6       12.9       12.4       12.2       12.0       11.9       11.9       11.9       11.8       11.8       11.8        0.0        0.0        0.0        0.0        0.0        0.0        0.0        0.0        0.0        0.0        0.0        0.0     12.0       0.3      25.1      28.9      32.8    422.57
    24     9  2024    86     4     280.6     1.8      0.0    0.0    1.8    0.0      9.8      0.0   -9.90      0.0      0.0    100      0.2      0.2   100      0.2     0.2     100     19.5    2.14     -9      0     -9      0      0    82.8    82.8      0     0.76      0.2      0.2      0.2   100    35.0    18.542    37.4    6.927    7.697     100       30.81    0.000    0.000     280.6    280.6    2.14   261.7     905.6     250.0     187.1      92.3      92.3      52.9    0.000     0.000     0.000     0.000     0.000    2.14     0.00    0.00      0   -9.90   -9.00       13.7       12.6       13.0       12.5       12.4       12.2       12.1       12.0       11.9       11.9       11.9       11.9        0.0        0.0        0.0        0.0        0.0        0.0        0.0        0.0        0.0        0.0        0.0        0.0      1.8       0.2      24.9      27.8      30.6    422.57
    25     9  2024    87     4     289.1    17.4      0.0    0.0   16.2    1.2      7.4      0.0   -9.90      0.0      0.0    100      0.2      0.2   100      0.2     0.2     100     19.5    2.16     -9      0     -9      0      0    80.5    80.5      0     0.72      0.2      0.2      0.2   100    35.0    18.795    38.9    7.307    8.119     100       32.18    0.000    0.000     289.1    289.1    2.16   272.5     913.2     252.1     188.8      93.2      93.2      53.4    0.000     0.000     0.000     0.000     0.000    2.16     0.00    0.00      0   -9.90   -9.00       28.2       12.0       12.0       12.0       12.0       11.9       11.9       11.9       11.9       11.8       11.8       11.8        0.0        0.0        0.0        0.0        0.0        0.0        0.0        0.0        0.0        0.0        0.0        0.0     17.4       0.3      24.9      28.3      31.6    422.57
[...]
    10    12  2025    -9     0     261.5     0.0      0.0    0.0    0.0    0.0      0.0      0.0   -9.90      0.4      0.1     34      0.0      0.0   100      0.4     0.1      34     17.1    2.28     -9     -9     -9      0     -9     0.0     0.0      0    -9.00      0.0      0.0      0.0   100    35.1    20.220    48.0    9.706   10.784     100       38.76    0.000    0.000     261.5    261.5    2.28   259.4     965.7     266.5     200.0      98.9      98.8      56.5    0.000     0.000     0.000     0.000     0.000    2.28     0.00    0.00      0   -9.90   -9.00        4.5       11.7       11.7       11.7       11.7       11.7       11.7       11.7       11.7       11.7       11.7       11.7        0.0        0.0        0.0        0.0        0.0        0.0        0.0        0.0        0.0        0.0        0.0        0.0      0.0       0.3      20.1      26.0      31.8    424.57
    11    12  2025    -9     0     261.4     0.0      0.0    0.0    0.0    0.0      0.0      0.0   -9.90      0.4      0.1     32      0.0      0.0   100      0.4     0.1      32     16.9    2.28     -9     -9     -9      0     -9     0.0     0.0      0    -9.00      0.0      0.0      0.0   100    35.1    20.220    48.0    9.706   10.784     100       38.76    0.000    0.000     261.4    261.4    2.28   259.3     965.7     266.5     200.0      98.9      98.8      56.5    0.000     0.000     0.000     0.000     0.000    2.28     0.00    0.00      0   -9.90   -9.00        4.3       11.7       11.7       11.7       11.7       11.7       11.7       11.7       11.7       11.7       11.7       11.7        0.0        0.0        0.0        0.0        0.0        0.0        0.0        0.0        0.0        0.0        0.0        0.0      0.0       0.3      19.7      25.5      31.4    424.57
    12    12  2025    -9     0     261.2     0.0      0.0    0.0    0.0    0.0      0.0      0.0   -9.90      0.4      0.1     31      0.0      0.0   100      0.4     0.1      31     16.0    2.28     -9     -9     -9      0     -9     0.0     0.0      0    -9.00      0.0      0.0      0.0   100    35.1    20.220    48.0    9.706   10.784     100       38.76    0.000    0.000     261.2    261.2    2.28   259.2     965.7     266.5     200.0      99.0      98.8      56.5    0.000     0.000     0.000     0.000     0.000    2.28     0.00    0.00      0   -9.90   -9.00        4.2       11.7       11.7       11.7       11.7       11.7       11.7       11.7       11.7       11.7       11.7       11.7        0.0        0.0        0.0        0.0        0.0        0.0        0.0        0.0        0.0        0.0        0.0        0.0      0.0       0.3      18.0      24.8      31.6    424.57
    13    12  2025    -9     0     261.1     0.0      0.0    0.0    0.0    0.0      0.0      0.0   -9.90      0.3      0.1     30      0.0      0.0   100      0.3     0.1      30     15.7    2.28     -9     -9     -9      0     -9     0.0     0.0      0    -9.00      0.0      0.0      0.0   100    35.1    20.220    48.0    9.706   10.784     100       38.76    0.000    0.000     261.1    261.1    2.28   259.1     965.7     266.5     200.0      98.7      98.8      56.5    0.000     0.000     0.000     0.000     0.000    2.28     0.00    0.00      0   -9.90   -9.00        4.1       11.7       11.7       11.7       11.7       11.7       11.7       11.7       11.7       11.7       11.7       11.7        0.0        0.0        0.0        0.0        0.0        0.0        0.0        0.0        0.0        0.0        0.0        0.0      0.0       0.3      18.4      23.7      29.0    424.57
    14    12  2025    -9     0     261.1     0.0      0.0    0.0    0.0    0.0      0.0      0.0   -9.90      0.3      0.1     29      0.0      0.0   100      0.3     0.1      29     13.5    2.28     -9     -9     -9      0     -9     0.0     0.0      0    -9.00      0.0      0.0      0.0   100    35.1    20.220    48.0    9.706   10.784     100       38.76    0.000    0.000     261.1    261.1    2.28   259.0     965.7     266.5     200.0      98.6      98.8      56.5    0.000     0.000     0.000     0.000     0.000    2.28     0.00    0.00      0   -9.90   -9.00        4.0       11.7       11.7       11.7       11.7       11.7       11.7       11.7       11.7       11.7       11.7       11.7        0.0        0.0        0.0        0.0        0.0        0.0        0.0        0.0        0.0        0.0        0.0        0.0      0.0       0.3      16.9      21.5      26.0    424.57
    15    12  2025    -9     0     261.0     0.0      0.0    0.0    0.0    0.0      0.0      0.0   -9.90      0.4      0.1     28      0.0      0.0   100      0.4     0.1      28     13.5    2.28     -9     -9     -9      0     -9     0.0     0.0      0    -9.00      0.0      0.0      0.0   100    35.1    20.220    48.0    9.706   10.784     100       38.76    0.000    0.000     261.0    261.0    2.28   258.9     965.7     266.5     200.0      98.9      98.8      56.5    0.000     0.000     0.000     0.000     0.000    2.28     0.00    0.00      0   -9.90   -9.00        3.9       11.7       11.7       11.7       11.7       11.7       11.7       11.7       11.7       11.7       11.7       11.7        0.0        0.0        0.0        0.0        0.0        0.0        0.0        0.0        0.0        0.0        0.0        0.0      0.0       0.3      14.8      21.5      28.2    424.57
    16    12  2025    -9     0     260.9     0.0      0.0    0.0    0.0    0.0      0.0      0.0   -9.90      0.4      0.1     27      0.0      0.0   100      0.4     0.1      27     15.5    2.28     -9     -9     -9      0     -9     0.0     0.0      0    -9.00      0.0      0.0      0.0   100    35.1    20.220    48.0    9.706   10.784     100       38.76    0.000    0.000     260.9    260.9    2.28   258.8     965.7     266.5     200.0      98.9      98.8      56.5    0.000     0.000     0.000     0.000     0.000    2.28     0.00    0.00      0   -9.90   -9.00        3.8       11.7       11.7       11.7       11.7       11.7       11.7       11.7       11.7       11.7       11.7       11.7        0.0        0.0        0.0        0.0        0.0        0.0        0.0        0.0        0.0        0.0        0.0        0.0      0.0       0.3      17.1      23.5      29.9    424.57
    17    12  2025    -9     0     260.8     0.0      0.0    0.0    0.0    0.0      0.0      0.0   -9.90      0.3      0.1     26      0.0      0.0   100      0.3     0.1      26     15.0    2.28     -9     -9     -9      0     -9     0.0     0.0      0    -9.00      0.0      0.0      0.0   100    35.1    20.220    48.0    9.706   10.784     100       38.76    0.000    0.000     260.8    260.8    2.28   258.7     965.7     266.5     200.0      98.7      98.8      56.5    0.000     0.000     0.000     0.000     0.000    2.28     0.00    0.00      0   -9.90   -9.00        3.8       11.7       11.7       11.7       11.7       11.7       11.7       11.7       11.7       11.7       11.7       11.7        0.0        0.0        0.0        0.0        0.0        0.0        0.0        0.0        0.0        0.0        0.0        0.0      0.0       0.3      17.6      23.0      28.3    424.57
    18    12  2025    -9     0     260.7     0.0      0.0    0.0    0.0    0.0      0.0      0.0   -9.90      0.3      0.1     25      0.0      0.0   100      0.3     0.1      25     14.2    2.28     -9     -9     -9      0     -9     0.0     0.0      0    -9.00      0.0      0.0      0.0   100    35.1    20.220    48.0    9.706   10.784     100       38.76    0.000    0.000     260.7    260.7    2.28   258.7     965.7     266.5     200.0      98.6      98.8      56.5    0.000     0.000     0.000     0.000     0.000    2.28     0.00    0.00      0   -9.90   -9.00        3.7       11.7       11.7       11.7       11.7       11.7       11.7       11.7       11.7       11.7       11.7       11.7        0.0        0.0        0.0        0.0        0.0        0.0        0.0        0.0        0.0        0.0        0.0        0.0      0.0       0.3      17.9      22.2      26.6    424.57
    19    12  2025    -9     0     260.6     0.0      0.0    0.0    0.0    0.0      0.0      0.0   -9.90      0.4      0.1     24      0.0      0.0   100      0.4     0.1      24     13.7    2.28     -9     -9     -9      0     -9     0.0     0.0      0    -9.00      0.0      0.0      0.0   100    35.1    20.220    48.0    9.706   10.784     100       38.76    0.000    0.000     260.6    260.6    2.28   258.6     965.7     266.5     200.0      98.8      98.8      56.5    0.000     0.000     0.000     0.000     0.000    2.28     0.00    0.00      0   -9.90   -9.00        3.6       11.7       11.7       11.7       11.7       11.7       11.7       11.7       11.7       11.7       11.7       11.7        0.0        0.0        0.0        0.0        0.0        0.0        0.0        0.0        0.0        0.0        0.0        0.0      0.0       0.3      15.3      21.7      28.0    424.57
    20    12  2025    -9     0     260.5     0.0      0.0    0.0    0.0    0.0      0.0      0.0   -9.90      0.4      0.1     24      0.0      0.0   100      0.4     0.1      24     14.7    2.28     -9     -9     -9      0     -9     0.0     0.0      0    -9.00      0.0      0.0      0.0   100    35.1    20.220    48.0    9.706   10.784     100       38.76    0.000    0.000     260.5    260.5    2.28   258.5     965.7     266.5     200.0      98.9      98.8      56.5    0.000     0.000     0.000     0.000     0.000    2.28     0.00    0.00      0   -9.90   -9.00        3.5       11.7       11.7       11.7       11.7       11.7       11.7       11.7       11.7       11.7       11.7       11.7        0.0        0.0        0.0        0.0        0.0        0.0        0.0        0.0        0.0        0.0        0.0        0.0      0.0       0.3      15.6      22.7      29.8    424.57
    21    12  2025    -9     0     260.4     0.0      0.0    0.0    0.0    0.0      0.0      0.0   -9.90      0.4      0.1     23      0.0      0.0   100      0.4     0.1      23     15.0    2.28     -9     -9     -9      0     -9     0.0     0.0      0    -9.00      0.0      0.0      0.0   100    35.1    20.220    48.0    9.706   10.784     100       38.76    0.000    0.000     260.4    260.4    2.28   258.4     965.7     266.5     200.0      99.0      98.8      56.5    0.000     0.000     0.000     0.000     0.000    2.28     0.00    0.00      0   -9.90   -9.00        3.4       11.7       11.7       11.7       11.7       11.7       11.7       11.7       11.7       11.7       11.7       11.7        0.0        0.0        0.0        0.0        0.0        0.0        0.0        0.0        0.0        0.0        0.0        0.0      0.0       0.3      15.9      23.2      30.5    424.57
    22    12  2025    -9     0     260.4     0.0      0.0    0.0    0.0    0.0      0.0      0.0   -9.90      0.4      0.1     22      0.0      0.0   100      0.4     0.1      22     15.7    2.28     -9     -9     -9      0     -9     0.0     0.0      0    -9.00      0.0      0.0      0.0   100    35.1    20.220    48.0    9.706   10.784     100       38.76    0.000    0.000     260.4    260.4    2.28   258.3     965.7     266.5     200.0      98.9      98.8      56.5    0.000     0.000     0.000     0.000     0.000    2.28     0.00    0.00      0   -9.90   -9.00        3.3       11.7       11.7       11.7       11.7       11.7       11.7       11.7       11.7       11.7       11.7       11.7        0.0        0.0        0.0        0.0        0.0        0.0        0.0        0.0        0.0        0.0        0.0        0.0      0.0       0.3      17.3      23.8      30.3    424.57
    23    12  2025    -9     0     260.3     0.0      0.0    0.0    0.0    0.0      0.0      0.0   -9.90      0.4      0.1     21      0.0      0.0   100      0.4     0.1      21     15.8    2.28     -9     -9     -9      0     -9     0.0     0.0      0    -9.00      0.0      0.0      0.0   100    35.1    20.220    48.0    9.706   10.784     100       38.76    0.000    0.000     260.3    260.3    2.28   258.2     965.7     266.5     200.0      98.8      98.8      56.5    0.000     0.000     0.000     0.000     0.000    2.28     0.00    0.00      0   -9.90   -9.00        3.3       11.7       11.7       11.7       11.7       11.7       11.7       11.7       11.7       11.7       11.7       11.7        0.0        0.0        0.0        0.0        0.0        0.0        0.0        0.0        0.0        0.0        0.0        0.0      0.0       0.3      17.7      23.8      29.9    424.57
    24    12  2025    -9     0     260.2     0.0      0.0    0.0    0.0    0.0      0.0      0.0   -9.90      0.3      0.1     21      0.0      0.0   100      0.3     0.1      21     15.8    2.28     -9     -9     -9      0     -9     0.0     0.0      0    -9.00      0.0      0.0      0.0   100    35.1    20.220    48.0    9.706   10.784     100       38.76    0.000    0.000     260.2    260.2    2.28   258.2     965.7     266.5     200.0      98.7      98.8      56.5    0.000     0.000     0.000     0.000     0.000    2.28     0.00    0.00      0   -9.90   -9.00        3.2       11.7       11.7       11.7       11.7       11.7       11.7       11.7       11.7       11.7       11.7       11.7        0.0        0.0        0.0        0.0        0.0        0.0        0.0        0.0        0.0        0.0        0.0        0.0      0.0       0.3      18.6      23.8      29.1    424.57
    25    12  2025    -9     0     260.2     0.0      0.0    0.0    0.0    0.0      0.0      0.0   -9.90      0.3      0.1     20      0.0      0.0   100      0.3     0.1      20     14.8    2.28     -9     -9     -9      0     -9     0.0     0.0      0    -9.00      0.0      0.0      0.0   100    35.1    20.220    48.0    9.706   10.784     100       38.76    0.000    0.000     260.2    260.2    2.28   258.1     965.7     266.5     200.0      98.6      98.8      56.5    0.000     0.000     0.000     0.000     0.000    2.28     0.00    0.00      0   -9.90   -9.00        3.1       11.7       11.7       11.7       11.7       11.7       11.7       11.7       11.7       11.7       11.7       11.7        0.0        0.0        0.0        0.0        0.0        0.0        0.0        0.0        0.0        0.0        0.0        0.0      0.0       0.3      18.5      22.8      27.1    424.57
    26    12  2025    -9     0     260.1     0.0      0.0    0.0    0.0    0.0      0.0      0.0   -9.90      0.4      0.1     20      0.0      0.0   100      0.4     0.1      20     14.7    2.28     -9     -9     -9      0     -9     0.0     0.0      0    -9.00      0.0      0.0      0.0   100    35.1    20.220    48.0    9.706   10.784     100       38.76    0.000    0.000     260.1    260.1    2.28   258.0     965.7     266.5     200.0      98.8      98.8      56.5    0.000     0.000     0.000     0.000     0.000    2.28     0.00    0.00      0   -9.90   -9.00        3.0       11.7       11.7       11.7       11.7       11.7       11.7       11.7       11.7       11.7       11.7       11.7        0.0        0.0        0.0        0.0        0.0        0.0        0.0        0.0        0.0        0.0        0.0        0.0      0.0       0.3      16.3      22.7      29.1    424.57
    27    12  2025    -9     0     260.0     0.0      0.0    0.0    0.0    0.0      0.0      0.0   -9.90      0.4      0.1     24      0.0      0.0   100      0.4     0.1      24     14.6    2.28     -9     -9     -9      0     -9     0.0     0.0      0    -9.00      0.0      0.0      0.0   100    35.1    20.220    48.0    9.706   10.784     100       38.76    0.000    0.000     260.0    260.0    2.28   258.0     965.7     266.5     200.0      98.9      98.8      56.5    0.000     0.000     0.000     0.000     0.000    2.28     0.00    0.00      0   -9.90   -9.00        3.0       11.7       11.7       11.7       11.7       11.7       11.7       11.7       11.7       11.7       11.7       11.7        0.0        0.0        0.0        0.0        0.0        0.0        0.0        0.0        0.0        0.0        0.0        0.0      0.0       0.3      15.5      22.6      29.8    424.57
    28    12  2025    -9     0     259.9     0.0      0.0    0.0    0.0    0.0      0.0      0.0   -9.90      0.4      0.1     19      0.0      0.0   100      0.4     0.1      19     14.9    2.28     -9     -9     -9      0     -9     0.0     0.0      0    -9.00      0.0      0.0      0.0   100    35.1    20.220    48.0    9.706   10.784     100       38.76    0.000    0.000     259.9    259.9    2.28   257.9     965.7     266.5     200.0      99.0      98.8      56.5    0.000     0.000     0.000     0.000     0.000    2.28     0.00    0.00      0   -9.90   -9.00        2.9       11.7       11.7       11.7       11.7       11.7       11.7       11.7       11.7       11.7       11.7       11.7        0.0        0.0        0.0        0.0        0.0        0.0        0.0        0.0        0.0        0.0        0.0        0.0      0.0       0.4      15.9      23.5      31.1    424.57
    29    12  2025    -9     0     259.9     0.0      0.0    0.0    0.0    0.0      0.0      0.0   -9.90      0.4      0.1     18      0.0      0.0   100      0.4     0.1      18     15.5    2.28     -9     -9     -9      0     -9     0.0     0.0      0    -9.00      0.0      0.0      0.0   100    35.1    20.220    48.0    9.706   10.784     100       38.76    0.000    0.000     259.9    259.9    2.28   257.8     965.7     266.5     200.0      99.1      98.8      56.5    0.000     0.000     0.000     0.000     0.000    2.28     0.00    0.00      0   -9.90   -9.00        2.8       11.7       11.7       11.7       11.7       11.7       11.7       11.7       11.7       11.7       11.7       11.7        0.0        0.0        0.0        0.0        0.0        0.0        0.0        0.0        0.0        0.0        0.0        0.0      0.0       0.4      17.0      24.8      32.6    424.57
    30    12  2025    -9     0     259.8     0.0      0.0    0.0    0.0    0.0      0.0      0.0   -9.90      0.4      0.1     18      0.0      0.0   100      0.4     0.1      18     16.7    2.28     -9     -9     -9      0     -9     0.0     0.0      0    -9.00      0.0      0.0      0.0   100    35.1    20.220    48.0    9.706   10.784     100       38.76    0.000    0.000     259.8    259.8    2.28   257.8     965.7     266.5     200.0      99.0      98.8      56.5    0.000     0.000     0.000     0.000     0.000    2.28     0.00    0.00      0   -9.90   -9.00        2.8       11.7       11.7       11.7       11.7       11.7       11.7       11.7       11.7       11.7       11.7       11.7        0.0        0.0        0.0        0.0        0.0        0.0        0.0        0.0        0.0        0.0        0.0        0.0      0.0       0.4      19.5      26.4      33.2    424.57
    31    12  2025    -9     0     259.7     0.0      0.0    0.0    0.0    0.0      0.0      0.0   -9.90      0.4      0.1     17      0.0      0.0   100      0.4     0.1      17     16.8    2.28     -9     -9     -9      0     -9     0.0     0.0      0    -9.00      0.0      0.0      0.0   100    35.1    20.220    48.0    9.706   10.784     100       38.76    0.000    0.000     259.7    259.7    2.28   257.7     965.7     266.5     200.0      99.1      98.8      56.5    0.000     0.000     0.000     0.000     0.000    2.28     0.00    0.00      0   -9.90   -9.00        2.7       11.7       11.7       11.7       11.7       11.7       11.7       11.7       11.7       11.7       11.7       11.7        0.0        0.0        0.0        0.0        0.0        0.0        0.0        0.0        0.0        0.0        0.0        0.0      0.0       0.4      19.6      27.0      34.4    424.57
