AquaCrop 7.1 (August 2023) - Output created on (date) : 29-01-2026   at (time) : 01:20:27

    RunNr     Day1   Month1    Year1     Rain      ETo       GD     CO2      Irri   Infilt   Runoff    Drain   Upflow        E     E/Ex       Tr      TrW   Tr/Trx    SaltIn   SaltOut    SaltUp  SaltProf     Cycle   SaltStr  FertStr  WeedStr  TempStr   ExpStr   StoStr  BioMass  Brelative   HI    Y(dry)  Y(fresh)    WPet      Bin     Bout     DayN   MonthN    YearN
                                           mm       mm  degC.day    ppm        mm       mm       mm       mm       mm       mm        %       mm       mm        %    ton/ha    ton/ha    ton/ha    ton/ha      days       %        %        %        %        %        %    ton/ha        %       %    ton/ha   ton/ha    kg/m3   ton/ha   ton/ha
   Tot(1)        1        7     2024    308.7     54.1   3460.1   422.57      0.0    293.7     15.1    263.2      0.0     24.8       58     14.3     14.3      100     0.000     0.000     0.000     0.000       89        0       30        0        0        0        0    20.205      100     48.0    9.698   10.776    40.22    0.000    0.000       31       12     2024  cluster_115.PRM
   Tot(2)        1        7     2025    272.5     53.2   3463.3   424.57      0.0    262.2     10.4    229.1      0.0     27.1       66     14.9     14.9      100     0.000     0.000     0.000     0.000       89        0       30        0        0        0        0    20.220      100     48.0    9.706   10.784    38.76    0.000    0.000       31       12     2025  cluster_115.PRM
