AquaCrop 7.1 (August 2023) - Output created on (date) : 16-01-2026   at (time) : 12:17:08

   Run:   1
   Day Month  Year   DAP Stage   WC(2.30)   Rain     Irri   Surf   Infilt   RO    Drain       CR    Zgwt       Ex       E     E/Ex     Trx       Tr  Tr/Trx    ETx      ET  ET/ETx      GD       Z     StExp  StSto  StSen StSalt StWeed   CC      CCw     StTr  Kc(Tr)     Trx       Tr      TrW  Tr/Trx   WP    Biomass     HI    Y(dry)  Y(fresh)  Brelative    WPet      Bin     Bout  WC(2.30) Wr(2.30)     Z       Wr    Wr(SAT)    Wr(FC)   Wr(exp)   Wr(sto)   Wr(sen)   Wr(PWP)    SaltIn    SaltOut   SaltUp   Salt(2.30)  SaltZ     Z       ECe    ECsw   StSalt  Zgwt    ECgw       WC01       WC 2       WC 3       WC 4       WC 5       WC 6       WC 7       WC 8       WC 9       WC10       WC11       WC12      ECe01      ECe 2      ECe 3      ECe 4      ECe 5      ECe 6      ECe 7      ECe 8      ECe 9      ECe10      ECe11      ECe12     Rain       ETo      Tmin      Tavg      Tmax      CO2
                                      mm      mm       mm     mm     mm     mm       mm       mm      m        mm       mm     %        mm       mm    %        mm      mm       %  degC-day     m       %      %      %      %      %      %       %       %       -        mm       mm       mm    %     g/m2    ton/ha      %    ton/ha   ton/ha       %       kg/m3   ton/ha   ton/ha      mm       mm       m       mm        mm        mm        mm        mm        mm         mm    ton/ha    ton/ha    ton/ha    ton/ha    ton/ha     m      dS/m    dS/m      %     m      dS/m       0.05       0.18       0.33       0.48       0.63       0.80       1.00       1.20       1.43       1.68       1.93       2.18       0.05       0.18       0.33       0.48       0.63       0.80       1.00       1.20       1.43       1.68       1.93       2.18       mm        mm     degC      degC      degC       ppm
     1     7  2011     1     1     262.4     1.0      0.0    0.0    1.0    0.0      0.0      0.0   -9.90     16.0      7.2     45      0.0      0.0   100     16.0     7.2      45     17.7    0.30     -9     -9     -9      0     -9     0.0     0.0      0    -9.00      0.0      0.0      0.0   100     0.0     0.000    -9.9    0.000    0.000      -9        0.00    0.000    0.000     262.4    262.4    0.30    28.4     125.1      34.6      30.7      21.6      15.5       6.9    0.000     0.000     0.000     0.000     0.000    0.30     0.00    0.00      0   -9.90   -9.00        5.4       11.7       11.7       11.7       11.7       11.7       11.7       11.7       11.7       11.7       11.7       11.7        0.0        0.0        0.0        0.0        0.0        0.0        0.0        0.0        0.0        0.0        0.0        0.0      1.0      14.6      21.4      28.0      34.6    391.85
     2     7  2011     2     1     259.2     3.9      0.0    0.0    3.9    0.0      0.0      0.0   -9.90     17.0      7.1     42      0.0      0.0   100     17.0     7.1      42     16.9    0.30     -9     -9     -9      0     -9     0.0     0.0      0    -9.00      0.0      0.0      0.0   100     0.0     0.000    -9.9    0.000    0.000      -9        0.00    0.000    0.000     259.2    259.2    0.30    25.2     125.1      34.6      30.7      22.2      15.5       6.9    0.000     0.000     0.000     0.000     0.000    0.30     0.00    0.00      0   -9.90   -9.00        2.1       11.7       11.7       11.7       11.7       11.7       11.7       11.7       11.7       11.7       11.7       11.7        0.0        0.0        0.0        0.0        0.0        0.0        0.0        0.0        0.0        0.0        0.0        0.0      3.9      15.5      19.8      27.5      35.1    391.85
     3     7  2011     3     1     260.3    10.1      0.0    0.0   10.1    0.0      0.0      0.0   -9.90     15.9      9.0     56      0.0      0.0   100     15.9     9.0      56     17.1    0.30     -9     -9     -9      0     -9     0.0     0.0      0    -9.00      0.0      0.0      0.0   100     0.0     0.000    -9.9    0.000    0.000      -9        0.00    0.000    0.000     260.3    260.3    0.30    26.3     125.1      34.6      30.7      21.6      15.5       6.9    0.000     0.000     0.000     0.000     0.000    0.30     0.00    0.00      0   -9.90   -9.00        3.2       11.7       11.7       11.7       11.7       11.7       11.7       11.7       11.7       11.7       11.7       11.7        0.0        0.0        0.0        0.0        0.0        0.0        0.0        0.0        0.0        0.0        0.0        0.0     10.1      14.5      20.3      27.1      33.9    391.85
     4     7  2011     4     1     259.6     6.9      0.0    0.0    6.9    0.0      0.0      0.0   -9.90     15.7      7.6     48      0.0      0.0   100     15.7     7.6      48     17.0    0.30     -9     -9     -9      0     -9     0.0     0.0      0    -9.00      0.0      0.0      0.0   100     0.0     0.000    -9.9    0.000    0.000      -9        0.00    0.000    0.000     259.6    259.6    0.30    25.6     125.1      34.6      30.7      21.4      15.5       6.9    0.000     0.000     0.000     0.000     0.000    0.30     0.00    0.00      0   -9.90   -9.00        2.6       11.7       11.7       11.7       11.7       11.7       11.7       11.7       11.7       11.7       11.7       11.7        0.0        0.0        0.0        0.0        0.0        0.0        0.0        0.0        0.0        0.0        0.0        0.0      6.9      14.3      19.9      26.7      33.4    391.85
     5     7  2011     5     1     259.4     7.3      0.0    0.0    7.3    0.0      0.0      0.0   -9.90     16.7      7.6     45      0.0      0.0   100     16.7     7.6      45     17.5    0.32     -9     -9     -9      0     -9     0.0     0.0      0    -9.00      0.0      0.0      0.0   100     0.0     0.000    -9.9    0.000    0.000      -9        0.00    0.000    0.000     259.4    259.4    0.32    27.7     133.5      36.9      32.8      23.5      16.5       7.4    0.000     0.000     0.000     0.000     0.000    0.32     0.00    0.00      0   -9.90   -9.00        2.3       11.7       11.7       11.7       11.7       11.7       11.7       11.7       11.7       11.7       11.7       11.7        0.0        0.0        0.0        0.0        0.0        0.0        0.0        0.0        0.0        0.0        0.0        0.0      7.3      15.2      20.9      28.1      35.2    391.85
     6     7  2011     6     1     263.2    13.2      0.0    0.0   13.2    0.0      0.0      0.0   -9.90     15.5      9.4     61      0.0      0.0   100     15.5     9.4      61     17.1    0.36     -9     -9     -9      0     -9     0.0     0.0      0    -9.00      0.0      0.0      0.0   100     0.0     0.000    -9.9    0.000    0.000      -9        0.00    0.000    0.000     263.2    263.2    0.36    36.2     150.6      41.6      37.0      25.7      18.7       8.4    0.000     0.000     0.000     0.000     0.000    0.36     0.00    0.00      0   -9.90   -9.00        6.2       11.7       11.7       11.7       11.7       11.7       11.7       11.7       11.7       11.7       11.7       11.7        0.0        0.0        0.0        0.0        0.0        0.0        0.0        0.0        0.0        0.0        0.0        0.0     13.2      14.1      20.3      26.8      33.3    391.85
     7     7  2011     7     2     260.1     1.0      1.1    0.0    1.0    0.0      0.0      0.0   -9.90     16.0      5.1     32      0.1      0.1   100     16.2     5.2      32     17.3    0.40     -9      0      0      0      0     0.4     0.4      0     0.01      0.1      0.1      0.1   100    34.3     0.003    -9.9    0.000    0.000     100        0.00    0.000    0.000     260.1    260.1    0.40    37.5     166.4      46.0      46.0      28.9      28.9       9.3    0.000     0.000     0.000     0.000     0.000    0.40     0.00    0.00      0   -9.90   -9.00        9.5        9.5        9.6       11.7       11.7       11.7       11.7       11.7       11.7       11.7       11.7       11.7        0.0        0.0        0.0        0.0        0.0        0.0        0.0        0.0        0.0        0.0        0.0        0.0      1.0      14.7      20.6      27.5      34.3    391.85
     8     7  2011     8     2     263.5    14.2      0.0    0.0   14.1    0.2      0.0      0.0   -9.90     16.1     10.5     65      0.1      0.1   100     16.2    10.6      66     17.4    0.43     -9      0      0      0      0     0.5     0.5      0     0.01      0.1      0.1      0.1   100    34.3     0.006    -9.9    0.000    0.000     100        0.00    0.000    0.000     263.5    263.5    0.43    45.0     181.2      50.1      50.1      31.6      31.6      10.2    0.000     0.000     0.000     0.000     0.000    0.43     0.00    0.00      0   -9.90   -9.00       13.0        9.5        9.6       11.7       11.7       11.7       11.7       11.7       11.7       11.7       11.7       11.7        0.0        0.0        0.0        0.0        0.0        0.0        0.0        0.0        0.0        0.0        0.0        0.0     14.2      14.8      20.9      27.7      34.6    391.85
     9     7  2011     9     2     258.8     2.4      1.4    0.0    2.4    0.0      0.0      0.0   -9.90     16.5      8.3     50      0.2      0.2   100     16.7     8.5      51     16.0    0.47      0      0      0      0      0     0.6     0.6      0     0.01      0.2      0.2      0.2   100    34.3     0.010    -9.9    0.000    0.000     100        0.00    0.000    0.000     258.8    258.8    0.47    45.0     195.4      54.0      54.0      34.5      34.5      11.0    0.000     0.000     0.000     0.000     0.000    0.47     0.00    0.00      0   -9.90   -9.00        9.6        9.6        9.6       10.8       11.7       11.7       11.7       11.7       11.7       11.7       11.7       11.7        0.0        0.0        0.0        0.0        0.0        0.0        0.0        0.0        0.0        0.0        0.0        0.0      2.4      15.2      17.9      25.8      33.7    391.85
    10     7  2011    10     2     257.1     0.9      3.8    0.0    0.9    0.0      0.0      0.0   -9.90     15.4      6.2     40      0.2      0.2   100     15.6     6.4      41     17.0    0.50      6      0      0      0      0     0.7     0.7      0     0.01      0.2      0.2      0.2   100    34.3     0.014    -9.9    0.000    0.000     100        0.00    0.000    0.000     257.1    257.1    0.50    47.2     209.1      57.8      57.8      35.8      35.8      11.9    0.000     0.000     0.000     0.000     0.000    0.50     0.00    0.00      0   -9.90   -9.00        9.5        9.5        9.5        9.9       11.7       11.7       11.7       11.7       11.7       11.7       11.7       11.7        0.0        0.0        0.0        0.0        0.0        0.0        0.0        0.0        0.0        0.0        0.0        0.0      0.9      14.2      19.9      26.6      33.2    391.85
    11     7  2011    11     2     259.1    12.8      0.0    0.0   12.7    0.1      0.0      0.0   -9.90     16.8     10.6     63      0.2      0.2   100     17.0    10.8      63     16.7    0.53      0      0      0      0      0     0.8     0.8      0     0.01      0.2      0.2      0.2   100    34.3     0.019    -9.9    0.000    0.000      99        0.00    0.000    0.000     259.1    259.1    0.53    52.3     222.3      61.4      61.4      39.6      39.6      12.6    0.000     0.000     0.000     0.000     0.000    0.53     0.00    0.00      0   -9.90   -9.00       11.4        9.5        9.5        9.9       11.7       11.7       11.7       11.7       11.7       11.7       11.7       11.7        0.0        0.0        0.0        0.0        0.0        0.0        0.0        0.0        0.0        0.0        0.0        0.0     12.8      15.5      19.4      27.1      34.9    391.85
    12     7  2011    12     2     256.3     6.4      0.6    0.0    6.4    0.0      0.0      0.0   -9.90     15.4      9.5     62      0.2      0.2   100     15.6     9.8      63     17.5    0.56      0      0      0      0      0     1.0     1.0      0     0.02      0.2      0.2      0.2   100    34.3     0.025    -9.9    0.000    0.000      99        0.00    0.000    0.000     256.3    256.3    0.56    52.9     235.2      65.0      65.0      40.4      40.4      13.4    0.000     0.000     0.000     0.000     0.000    0.56     0.00    0.00      0   -9.90   -9.00        9.5        9.5        9.5        9.5       11.6       11.7       11.7       11.7       11.7       11.7       11.7       11.7        0.0        0.0        0.0        0.0        0.0        0.0        0.0        0.0        0.0        0.0        0.0        0.0      6.4      14.2      21.1      27.5      33.9    391.85
    13     7  2011    13     2     255.8     5.3      3.7    0.0    5.3    0.0      0.0      0.0   -9.90     15.9      9.1     57      0.3      0.3   100     16.2     9.4      58     16.4    0.59      0      0      0      0      0     1.2     1.2      0     0.02      0.3      0.3      0.3   100    34.3     0.032    -9.9    0.000    0.000      99        0.00    0.000    0.000     255.8    255.8    0.59    56.4     247.7      68.4      68.4      43.2      43.2      14.1    0.000     0.000     0.000     0.000     0.000    0.59     0.00    0.00      0   -9.90   -9.00        9.5        9.5        9.6        9.6       11.0       11.7       11.7       11.7       11.7       11.7       11.7       11.7        0.0        0.0        0.0        0.0        0.0        0.0        0.0        0.0        0.0        0.0        0.0        0.0      5.3      14.8      18.8      26.1      33.5    391.85
    14     7  2011    14     2     255.2     3.2      4.8    0.0    3.2    0.0      0.0      0.0   -9.90     16.5      8.2     50      0.4      0.4   100     16.9     8.6      51     17.1    0.62      0      0      0      0      0     1.4     1.4      0     0.02      0.4      0.4      0.4   100    34.3     0.041    -9.9    0.000    0.000      99        0.00    0.000    0.000     255.2    255.2    0.62    59.5     259.9      71.8      71.8      46.2      46.2      14.8    0.000     0.000     0.000     0.000     0.000    0.62     0.00    0.00      0   -9.90   -9.00        9.6        9.6        9.6        9.6       10.4       11.7       11.7       11.7       11.7       11.7       11.7       11.7        0.0        0.0        0.0        0.0        0.0        0.0        0.0        0.0        0.0        0.0        0.0        0.0      3.2      15.4      20.1      27.6      35.1    391.85
    15     7  2011    15     2     256.2    10.9      0.0    0.0   10.9    0.0      0.0      0.0   -9.90     14.5      9.5     66      0.4      0.4   100     14.9     9.9      67     16.6    0.65      0      0      0      0      0     1.6     1.6      0     0.03      0.4      0.4      0.4   100    34.3     0.050    -9.9    0.000    0.000      99        0.00    0.000    0.000     256.2    256.2    0.65    63.4     271.9      75.1      75.1      45.8      45.8      15.6    0.000     0.000     0.000     0.000     0.000    0.65     0.00    0.00      0   -9.90   -9.00       10.5        9.6        9.6        9.6       10.4       11.7       11.7       11.7       11.7       11.7       11.7       11.7        0.0        0.0        0.0        0.0        0.0        0.0        0.0        0.0        0.0        0.0        0.0        0.0     10.9      13.6      19.2      25.5      31.9    391.85
    16     7  2011    16     2     253.6     3.5      2.9    0.0    3.5    0.0      0.0      0.0   -9.90     15.3      8.5     55      0.5      0.5   100     15.8     9.0      57     16.9    0.67      0      0      0      0      0     1.9     1.9      0     0.03      0.5      0.5      0.5   100    34.3     0.062    -9.9    0.000    0.000      99        0.00    0.000    0.000     253.6    253.6    0.67    63.9     283.6      78.3      78.3      49.0      49.0      16.2    0.000     0.000     0.000     0.000     0.000    0.67     0.00    0.00      0   -9.90   -9.00        9.5        9.5        9.5        9.5        9.7       11.7       11.7       11.7       11.7       11.7       11.7       11.7        0.0        0.0        0.0        0.0        0.0        0.0        0.0        0.0        0.0        0.0        0.0        0.0      3.5      14.4      19.9      26.7      33.5    391.85
    17     7  2011    17     2     253.4     0.9      5.9    0.0    0.9    0.0      0.0      0.0   -9.90     15.3      6.4     41      0.6      0.6   100     15.9     6.9      43     16.8    0.70      7      0      0      0      0     2.2     2.2      0     0.04      0.6      0.6      0.6   100    34.3     0.075    -9.9    0.000    0.000      99        0.00    0.000    0.000     253.4    253.4    0.70    66.4     295.2      81.5      81.5      51.2      51.2      16.9    0.000     0.000     0.000     0.000     0.000    0.70     0.00    0.00      0   -9.90   -9.00        9.5        9.5        9.5        9.5        9.5       11.7       11.7       11.7       11.7       11.7       11.7       11.7        0.0        0.0        0.0        0.0        0.0        0.0        0.0        0.0        0.0        0.0        0.0        0.0      0.9      14.5      19.7      26.6      33.6    391.85
    18     7  2011    18     2     253.3     2.3      5.7    0.0    2.3    0.0      0.0      0.0   -9.90     16.0      7.4     46      0.7      0.7   100     16.7     8.1      49     16.8    0.73      0      0      0      0      0     2.6     2.6      0     0.05      0.7      0.7      0.7   100    34.3     0.091    -9.9    0.000    0.000      99        0.00    0.000    0.000     253.3    253.3    0.73    69.9     306.5      84.6      84.6      54.2      54.2      17.6    0.000     0.000     0.000     0.000     0.000    0.73     0.00    0.00      0   -9.90   -9.00        9.6        9.6        9.6        9.6        9.6       11.4       11.7       11.7       11.7       11.7       11.7       11.7        0.0        0.0        0.0        0.0        0.0        0.0        0.0        0.0        0.0        0.0        0.0        0.0      2.3      15.2      19.6      27.0      34.5    391.85
    19     7  2011    19     2     252.9     2.3      5.6    0.0    2.3    0.0      0.0      0.0   -9.90     16.5      7.6     46      0.9      0.9   100     17.3     8.4      49     16.1    0.75      0      0      0      0      0     3.1     3.1      0     0.05      0.9      0.9      0.9   100    34.3     0.110    -9.9    0.000    0.000      99        0.00    0.000    0.000     252.9    252.9    0.75    73.1     317.7      87.7      87.7      57.2      57.2      18.3    0.000     0.000     0.000     0.000     0.000    0.75     0.00    0.00      0   -9.90   -9.00        9.6        9.6        9.7        9.7        9.7       10.9       11.7       11.7       11.7       11.7       11.7       11.7        0.0        0.0        0.0        0.0        0.0        0.0        0.0        0.0        0.0        0.0        0.0        0.0      2.3      15.8      18.3      26.5      34.8    391.85
    20     7  2011    20     2     251.4     3.2      4.5    0.0    3.2    0.0      0.0      0.0   -9.90     15.7      8.3     53      1.0      1.0   100     16.7     9.2      55     16.5    0.78      0      0      0      0      0     3.6     3.6      0     0.06      1.0      1.0      1.0   100    34.3     0.132    -9.9    0.000    0.000      98        0.00    0.000    0.000     251.4    251.4    0.78    75.1     328.7      90.8      90.8      58.2      58.2      18.9    0.000     0.000     0.000     0.000     0.000    0.78     0.00    0.00      0   -9.90   -9.00        9.6        9.6        9.6        9.6        9.6       10.4       11.7       11.7       11.7       11.7       11.7       11.7        0.0        0.0        0.0        0.0        0.0        0.0        0.0        0.0        0.0        0.0        0.0        0.0      3.2      15.2      19.0      26.7      34.3    391.85
    21     7  2011    21     2     256.5    17.6      0.0    0.0   17.1    0.5      0.0      0.0   -9.90     15.6     10.8     69      1.2      1.2   100     16.8    11.9      71     16.9    0.81      0      0      0      0      0     4.3     4.3      0     0.08      1.2      1.2      1.2   100    34.3     0.158    -9.9    0.000    0.000      98        0.00    0.000    0.000     256.5    256.5    0.81    83.0     339.6      93.8      93.8      60.3      60.3      19.5    0.000     0.000     0.000     0.000     0.000    0.81     0.00    0.00      0   -9.90   -9.00       14.8        9.6        9.6        9.6        9.6       10.4       11.7       11.7       11.7       11.7       11.7       11.7        0.0        0.0        0.0        0.0        0.0        0.0        0.0        0.0        0.0        0.0        0.0        0.0     17.6      15.3      19.8      27.3      34.8    391.85
    22     7  2011    22     2     249.6     0.3      0.0    0.0    0.3    0.0      0.0      0.0   -9.90     13.2      6.1     46      1.2      1.2   100     14.3     7.2      50     17.8    0.83      0      0      0      0      0     5.1     5.1      0     0.09      1.2      1.2      1.2   100    34.3     0.188    -9.9    0.000    0.000      98        0.00    0.000    0.000     249.6    249.6    0.83    78.6     350.3      96.7      96.7      58.3      58.3      20.2    0.000     0.000     0.000     0.000     0.000    0.83     0.00    0.00      0   -9.90   -9.00        4.7       11.6        9.6        9.6        9.6       10.4       11.7       11.7       11.7       11.7       11.7       11.7        0.0        0.0        0.0        0.0        0.0        0.0        0.0        0.0        0.0        0.0        0.0        0.0      0.3      13.1      21.6      27.2      32.7    391.85
    23     7  2011    23     2     249.4     2.1      3.9    0.0    2.1    0.0      0.0      0.0   -9.90     14.3      4.7     33      1.5      1.5   100     15.8     6.2      39     16.8    0.86     13      0      0      0      0     5.9     5.9      0     0.10      1.5      1.5      1.5   100    34.3     0.223    -9.9    0.000    0.000      98        0.00    0.000    0.000     249.4    249.4    0.86    81.3     360.9      99.7      99.7      62.4      62.4      20.8    0.000     0.000     0.000     0.000     0.000    0.86     0.00    0.00      0   -9.90   -9.00        9.5        9.5        9.5        9.5        9.5        9.7       11.7       11.7       11.7       11.7       11.7       11.7        0.0        0.0        0.0        0.0        0.0        0.0        0.0        0.0        0.0        0.0        0.0        0.0      2.1      14.4      19.6      26.5      33.4    391.85
    24     7  2011    24     2     250.3    10.6      2.0    0.0   10.6    0.0      0.0      0.0   -9.90     15.4      9.8     64      1.9      1.9   100     17.2    11.7      68     15.9    0.88      0      0      0      0      0     6.9     6.9      0     0.12      1.9      1.9      1.9   100    34.3     0.264    -9.9    0.000    0.000      98        0.00    0.000    0.000     250.3    250.3    0.88    84.7     371.4     102.5     102.5      66.8      66.8      21.4    0.000     0.000     0.000     0.000     0.000    0.88     0.00    0.00      0   -9.90   -9.00        9.6        9.6        9.7        9.7        9.7        9.7       11.7       11.7       11.7       11.7       11.7       11.7        0.0        0.0        0.0        0.0        0.0        0.0        0.0        0.0        0.0        0.0        0.0        0.0     10.6      15.8      17.8      26.2      34.5    391.85
    25     7  2011    25     2     254.7    16.2      0.0    0.0   15.9    0.3      0.0      0.0   -9.90     13.0      9.6     74      1.9      1.9   100     14.9    11.5      77     16.8    0.91      0      0      0      0      0     8.1     8.1      0     0.14      1.9      1.9      1.9   100    34.3     0.311    -9.9    0.000    0.000      97        0.00    0.000    0.000     254.7    254.7    0.91    91.5     381.7     105.4     105.4      64.6      64.6      22.0    0.000     0.000     0.000     0.000     0.000    0.91     0.00    0.00      0   -9.90   -9.00       14.1        9.6        9.7        9.7        9.7        9.7       11.7       11.7       11.7       11.7       11.7       11.7        0.0        0.0        0.0        0.0        0.0        0.0        0.0        0.0        0.0        0.0        0.0        0.0     16.2      13.7      19.5      25.9      32.2    391.85
    26     7  2011    26     2     248.2     0.8      1.3    0.0    0.8    0.0      0.0      0.0   -9.90     13.2      6.3     48      2.3      2.3   100     15.5     8.6      55     17.1    0.93      0      0      0      0      0     9.6     9.6      0     0.16      2.3      2.3      2.3   100    34.3     0.367    -9.9    0.000    0.000      97        0.00    0.000    0.000     248.2    248.2    0.93    88.4     392.0     108.2     108.2      67.5      67.5      22.6    0.000     0.000     0.000     0.000     0.000    0.93     0.00    0.00      0   -9.90   -9.00        9.5        9.5        9.5        9.5        9.5        9.5       11.4       11.7       11.7       11.7       11.7       11.7        0.0        0.0        0.0        0.0        0.0        0.0        0.0        0.0        0.0        0.0        0.0        0.0      0.8      14.2      20.3      26.9      33.5    391.85
    27     7  2011    27     2     248.7    10.9      2.1    0.0   10.9    0.0      0.0      0.0   -9.90     14.1      9.6     68      3.0      3.0   100     17.1    12.6      74     16.1    0.95      0      0      0      0      0    11.3    11.3      0     0.19      3.0      3.0      3.0   100    34.3     0.433    -9.9    0.000    0.000      97        0.00    0.000    0.000     248.7    248.7    0.95    92.3     402.2     111.0     111.0      72.1      72.1      23.2    0.000     0.000     0.000     0.000     0.000    0.95     0.00    0.00      0   -9.90   -9.00        9.6        9.6        9.7        9.7        9.7        9.7       10.9       11.7       11.7       11.7       11.7       11.7        0.0        0.0        0.0        0.0        0.0        0.0        0.0        0.0        0.0        0.0        0.0        0.0     10.9      15.7      18.2      26.4      34.5    391.85
    28     7  2011    28     2     247.0     6.1      4.1    0.0    6.1    0.0      0.0      0.0   -9.90     13.0      8.6     66      3.3      3.3   100     16.3    11.9      73     17.2    0.98      0      0      0      0      0    13.4    13.4      0     0.22      3.3      3.3      3.3   100    34.3     0.509    -9.9    0.000    0.000      97        0.00    0.000    0.000     247.0    247.0    0.98    93.8     412.2     113.8     113.8      72.5      72.5      23.8    0.000     0.000     0.000     0.000     0.000    0.98     0.00    0.00      0   -9.90   -9.00        9.5        9.5        9.6        9.6        9.6        9.6       10.4       11.7       11.7       11.7       11.7       11.7        0.0        0.0        0.0        0.0        0.0        0.0        0.0        0.0        0.0        0.0        0.0        0.0      6.1      15.0      20.3      27.4      34.6    391.85
    29     7  2011    29     2     245.1     2.4      5.9    0.0    2.4    0.0      0.0      0.0   -9.90     11.6      6.6     57      3.6      3.6   100     15.2    10.2      67     17.1    1.00      0      0      0      0      0    15.7    15.7      0     0.26      3.6      3.6      3.6   100    34.3     0.597    -9.9    0.000    0.000      97        0.00    0.000    0.000     245.1    245.1    1.00    94.8     422.2     116.6     116.6      72.2      72.2      24.4    0.000     0.000     0.000     0.000     0.000    1.00     0.00    0.00      0   -9.90   -9.00        9.4        9.4        9.5        9.5        9.5        9.5        9.9       11.7       11.7       11.7       11.7       11.7        0.0        0.0        0.0        0.0        0.0        0.0        0.0        0.0        0.0        0.0        0.0        0.0      2.4      14.0      20.2      26.6      33.1    391.85
    30     7  2011    30     2     245.5     6.5      6.6    0.0    6.5    0.0      0.0      0.0   -9.90     11.6      8.3     71      4.4      4.4   100     16.1    12.7      79     17.1    1.02      0      0      0      0      0    18.6    18.6      0     0.30      4.4      4.4      4.4   100    34.3     0.700    -9.9    0.000    0.000      97        0.00    0.000    0.000     245.5    245.5    1.02    97.7     432.0     119.3     119.3      75.7      75.7      25.0    0.000     0.000     0.000     0.000     0.000    1.02     0.00    0.00      0   -9.90   -9.00        9.5        9.5        9.6        9.6        9.6        9.6        9.7       11.7       11.7       11.7       11.7       11.7        0.0        0.0        0.0        0.0        0.0        0.0        0.0        0.0        0.0        0.0        0.0        0.0      6.5      14.8      20.2      27.3      34.3    391.85
    31     7  2011    31     2     245.0     7.2      5.3    0.0    7.2    0.0      0.0      0.0   -9.90     10.7      8.0     74      5.0      5.0   100     15.8    13.0      83     16.7    1.05      0      0      0      0      0    21.9    21.9      0     0.35      5.0      5.0      5.0   100    34.3     0.819    -9.9    0.000    0.000      97        0.00    0.000    0.000     245.0    245.0    1.05    99.5     441.8     122.0     122.0      76.8      76.8      25.6    0.000     0.000     0.000     0.000     0.000    1.05     0.00    0.00      0   -9.90   -9.00        9.5        9.5        9.5        9.5        9.5        9.5        9.6       11.7       11.7       11.7       11.7       11.7        0.0        0.0        0.0        0.0        0.0        0.0        0.0        0.0        0.0        0.0        0.0        0.0      7.2      14.6      19.5      26.5      33.6    391.85
     1     8  2011    32     2     244.6     5.2      7.6    0.0    5.2    0.0      0.0      0.0   -9.90      9.7      7.4     76      5.7      5.7   100     15.5    13.1      85     17.4    1.07      0      0      0      0      0    25.8    25.8      0     0.40      5.7      5.7      5.7   100    34.3     0.955    -9.9    0.000    0.000      97        0.00    0.000    0.000     244.6    244.6    1.07   101.4     451.5     124.7     124.7      78.0      78.0      26.1    0.000     0.000     0.000     0.000     0.000    1.07     0.00    0.00      0   -9.90   -9.00        9.5        9.5        9.5        9.5        9.5        9.5        9.5       11.7       11.7       11.7       11.7       11.7        0.0        0.0        0.0        0.0        0.0        0.0        0.0        0.0        0.0        0.0        0.0        0.0      5.2      14.3      20.9      27.4      34.0    391.85
     2     8  2011    33     2     245.8     7.4      8.4    0.0    7.4    0.0      0.0      0.0   -9.90      9.5      7.6     80      7.1      7.1   100     16.6    14.6      88     16.9    1.09      0      0      0      0      0    30.5    30.5      0     0.46      7.1      7.1      7.1   100    34.3     1.113    -9.9    0.000    0.000      97        0.00    0.000    0.000     245.8    245.8    1.09   104.7     461.2     127.3     127.3      82.1      82.1      26.7    0.000     0.000     0.000     0.000     0.000    1.09     0.00    0.00      0   -9.90   -9.00        9.6        9.6        9.6        9.6        9.6        9.6        9.6       11.7       11.7       11.7       11.7       11.7        0.0        0.0        0.0        0.0        0.0        0.0        0.0        0.0        0.0        0.0        0.0        0.0      7.4      15.4      19.8      27.4      35.0    391.85
     3     8  2011    34     2     244.2     5.8      6.5    0.0    5.8    0.0      0.0      0.0   -9.90      7.8      6.5     83      7.5      7.5   100     15.3    14.0      91     16.9    1.12      0      0      0      0      0    35.9    35.9      0     0.52      7.5      7.5      7.5   100    34.3     1.293    -9.9    0.000    0.000      97        0.00    0.000    0.000     244.2    244.2    1.12   105.9     470.7     130.0     130.0      81.2      81.2      27.3    0.000     0.000     0.000     0.000     0.000    1.12     0.00    0.00      0   -9.90   -9.00        9.5        9.5        9.5        9.5        9.5        9.5        9.5       11.5       11.7       11.7       11.7       11.7        0.0        0.0        0.0        0.0        0.0        0.0        0.0        0.0        0.0        0.0        0.0        0.0      5.8      14.3      19.9      26.6      33.4    391.85
     4     8  2011    35     2     244.4     3.7     11.6    0.0    3.7    0.0      0.0      0.0   -9.90      7.1      6.1     86      9.0      9.0   100     16.1    15.1      94     17.0    1.14      0      0      0      0      0    42.4    42.4      0     0.60      9.0      9.0      9.0   100    34.3     1.497    -9.9    0.000    0.000      97        0.00    0.000    0.000     244.4    244.4    1.14   109.3     480.2     132.6     132.6      84.8      84.8      27.8    0.000     0.000     0.000     0.000     0.000    1.14     0.00    0.00      0   -9.90   -9.00        9.6        9.6        9.6        9.6        9.6        9.6        9.6       11.2       11.7       11.7       11.7       11.7        0.0        0.0        0.0        0.0        0.0        0.0        0.0        0.0        0.0        0.0        0.0        0.0      3.7      15.1      20.0      27.3      34.6    391.85
     5     8  2011    36     2     242.1     6.1      6.3    0.0    6.1    0.0      0.0      0.0   -9.90      5.4      5.2     96      9.4      9.4   100     14.9    14.6      98     17.6    1.16      0      0      0      0      0    49.9    49.9      0     0.67      9.4      9.4      9.4   100    34.3     1.729    -9.9    0.000    0.000      97        0.00    0.000    0.000     242.1    242.1    1.16   110.1     489.6     135.2     135.2      83.7      83.7      28.4    0.000     0.000     0.000     0.000     0.000    1.16     0.00    0.00      0   -9.90   -9.00        9.4        9.4        9.5        9.5        9.5        9.5        9.5       10.7       11.7       11.7       11.7       11.7        0.0        0.0        0.0        0.0        0.0        0.0        0.0        0.0        0.0        0.0        0.0        0.0      6.1      14.0      21.2      27.4      33.6    391.85
     6     8  2011    37     2     239.7    10.1      1.1    0.0   10.1    0.0      0.0      0.0   -9.90      4.1      4.1    100      9.5      9.5   100     13.6    13.6     100     17.1    1.18      0      0      0      0      0    56.8    56.8      0     0.74      9.5      9.5      9.5   100    34.3     1.982    -9.9    0.000    0.000      97        0.00    0.000    0.000     239.7    239.7    1.18   110.7     499.0     137.8     137.8      82.4      82.4      28.9    0.000     0.000     0.000     0.000     0.000    1.18     0.00    0.00      0   -9.90   -9.00        9.3        9.3        9.4        9.4        9.4        9.4        9.4       10.1       11.7       11.7       11.7       11.7        0.0        0.0        0.0        0.0        0.0        0.0        0.0        0.0        0.0        0.0        0.0        0.0     10.1      12.8      20.2      25.8      31.4    391.85
     7     8  2011    38     2     242.6    13.7      5.9    0.0   13.6    0.1      0.0      0.0   -9.90      4.2      4.2    100     12.4     12.4   100     16.6    16.6     100     16.5    1.20      0      0      0      0      0    62.6    62.6      0     0.79     12.4     12.4     12.4   100    34.3     2.254    -9.9    0.000    0.000      97        0.00    0.000    0.000     242.6    242.6    1.20   116.0     508.3     140.3     140.3      91.3      91.3      29.5    0.000     0.000     0.000     0.000     0.000    1.20     0.00    0.00      0   -9.90   -9.00        9.6        9.6        9.7        9.7        9.7        9.7        9.7        9.9       11.7       11.7       11.7       11.7        0.0        0.0        0.0        0.0        0.0        0.0        0.0        0.0        0.0        0.0        0.0        0.0     13.7      15.7      19.0      27.0      35.0    391.85
     8     8  2011    39     2     241.5     1.8     12.8    0.0    1.8    0.0      0.0      0.0   -9.90      3.4      3.0     91     12.6     12.6   100     15.9    15.6      98     16.8    1.23      1      0      0      0      0    67.5    67.5      0     0.83     12.6     12.6     12.6   100    34.3     2.539    -9.9    0.000    0.000      97        0.00    0.000    0.000     241.5    241.5    1.23   117.3     517.5     142.9     142.9      91.4      91.4      30.0    0.000     0.000     0.000     0.000     0.000    1.23     0.00    0.00      0   -9.90   -9.00        9.6        9.6        9.6        9.6        9.6        9.6        9.6        9.7       11.7       11.7       11.7       11.7        0.0        0.0        0.0        0.0        0.0        0.0        0.0        0.0        0.0        0.0        0.0        0.0      1.8      15.1      19.5      27.0      34.4    391.85
     9     8  2011    40     2     240.4     3.3     10.8    0.0    3.3    0.0      0.0      0.0   -9.90      2.7      2.7    100     12.5     12.5   100     15.2    15.2     100     16.7    1.25      0      0      0      0      0    71.7    71.7      0     0.87     12.5     12.5     12.5   100    34.3     2.837    -9.9    0.000    0.000      97        0.00    0.000    0.000     240.4    240.4    1.25   118.4     526.7     145.4     145.4      91.2      91.2      30.6    0.000     0.000     0.000     0.000     0.000    1.25     0.00    0.00      0   -9.90   -9.00        9.5        9.5        9.5        9.5        9.5        9.5        9.5        9.6       11.7       11.7       11.7       11.7        0.0        0.0        0.0        0.0        0.0        0.0        0.0        0.0        0.0        0.0        0.0        0.0      3.3      14.4      19.3      26.3      33.3    391.85
    10     8  2011    41     2     240.5     1.9     13.4    0.0    1.9    0.0      0.0      0.0   -9.90      2.3      2.3    100     13.0     13.0   100     15.3    15.3     100     17.0    1.27      1      0      0      0      0    75.3    75.3      0     0.89     13.0     13.0     13.0   100    34.3     3.143    -9.9    0.000    0.000      97        0.00    0.000    0.000     240.5    240.5    1.27   120.5     535.8     147.9     147.9      93.1      93.1      31.1    0.000     0.000     0.000     0.000     0.000    1.27     0.00    0.00      0   -9.90   -9.00        9.5        9.5        9.5        9.5        9.5        9.5        9.5        9.5       11.7       11.7       11.7       11.7        0.0        0.0        0.0        0.0        0.0        0.0        0.0        0.0        0.0        0.0        0.0        0.0      1.9      14.5      20.0      26.9      33.8    391.85
    11     8  2011    42     2     241.8     1.4     16.0    0.0    1.4    0.0      0.0      0.0   -9.90      2.1      2.0     95     14.2     14.2   100     16.3    16.1      99     16.1    1.29      4      0      0      0      0    78.2    78.2      0     0.92     14.2     14.2     14.2   100    34.3     3.457    -9.9    0.000    0.000      98        0.00    0.000    0.000     241.8    241.8    1.29   123.8     544.9     150.4     150.4      97.3      97.3      31.6    0.000     0.000     0.000     0.000     0.000    1.29     0.00    0.00      0   -9.90   -9.00        9.6        9.6        9.6        9.6        9.6        9.6        9.6        9.6       11.7       11.7       11.7       11.7        0.0        0.0        0.0        0.0        0.0        0.0        0.0        0.0        0.0        0.0        0.0        0.0      1.4      15.5      18.2      26.2      34.3    391.85
    12     8  2011    43     2     241.5     7.1      8.8    0.0    7.1    0.0      0.0      0.0   -9.90      1.8      1.8    100     14.4     14.4   100     16.2    16.2     100     16.6    1.31      0      0      0      0      0    80.8    80.8      0     0.93     14.4     14.4     14.4   100    34.3     3.777    -9.9    0.000    0.000      98        0.00    0.000    0.000     241.5    241.5    1.31   126.0     553.9     152.9     152.9      98.7      98.7      32.2    0.000     0.000     0.000     0.000     0.000    1.31     0.00    0.00      0   -9.90   -9.00        9.6        9.6        9.6        9.6        9.6        9.6        9.6        9.6       11.6       11.7       11.7       11.7        0.0        0.0        0.0        0.0        0.0        0.0        0.0        0.0        0.0        0.0        0.0        0.0      7.1      15.4      19.1      26.9      34.7    391.85
    13     8  2011    44     2     240.2     2.9     11.4    0.0    2.9    0.0      0.0      0.0   -9.90      1.5      1.5    100     14.2     14.2   100     15.7    15.7     100     17.4    1.33      0      0      0      0      0    83.0    83.0      0     0.95     14.2     14.2     14.2   100    34.3     4.103    -9.9    0.000    0.000      98        0.00    0.000    0.000     240.2    240.2    1.33   127.7     562.8     155.4     155.4      98.9      98.9      32.7    0.000     0.000     0.000     0.000     0.000    1.33     0.00    0.00      0   -9.90   -9.00        9.5        9.5        9.6        9.6        9.6        9.6        9.6        9.6       11.3       11.7       11.7       11.7        0.0        0.0        0.0        0.0        0.0        0.0        0.0        0.0        0.0        0.0        0.0        0.0      2.9      14.9      20.9      27.9      34.9    391.85
    14     8  2011    45     2     238.1     4.9      7.9    0.0    4.9    0.0      0.0      0.0   -9.90      1.2      1.2    100     13.6     13.6   100     14.8    14.8     100     16.2    1.35      0      0      0      0      0    84.8    84.8      0     0.96     13.6     13.6     13.6   100    34.3     4.433    -9.9    0.000    0.000      98        0.00    0.000    0.000     238.1    238.1    1.35   128.8     571.7     157.8     157.8      98.3      98.3      33.2    0.000     0.000     0.000     0.000     0.000    1.35     0.00    0.00      0   -9.90   -9.00        9.5        9.5        9.5        9.5        9.5        9.5        9.5        9.5       11.0       11.7       11.7       11.7        0.0        0.0        0.0        0.0        0.0        0.0        0.0        0.0        0.0        0.0        0.0        0.0      4.9      14.2      18.5      25.5      32.5    391.85
    15     8  2011    46     2     237.8    10.7      4.4    0.0   10.7    0.0      0.0      0.0   -9.90      1.1      1.1    100     14.3     14.3   100     15.4    15.4     100     17.5    1.37      0      0      0      0      0    86.4    86.4      0     0.97     14.3     14.3     14.3   100    34.3     4.767    -9.9    0.000    0.000      98        0.00    0.000    0.000     237.8    237.8    1.37   131.6     580.6     160.3     160.3     101.4     101.4      33.8    0.000     0.000     0.000     0.000     0.000    1.37     0.00    0.00      0   -9.90   -9.00        9.5        9.5        9.6        9.6        9.6        9.6        9.6        9.6       10.5       11.7       11.7       11.7        0.0        0.0        0.0        0.0        0.0        0.0        0.0        0.0        0.0        0.0        0.0        0.0     10.7      14.7      21.0      27.8      34.6    391.85
    16     8  2011    47     2     238.2     8.5      8.2    0.0    8.5    0.0      0.0      0.0   -9.90      1.0      1.0    100     15.3     15.3   100     16.3    16.3     100     16.6    1.40      0      0      0      0      0    87.8    87.8      0     0.98     15.3     15.3     15.3   100    34.3     5.104    -9.9    0.000    0.000      98        0.00    0.000    0.000     238.2    238.2    1.40   134.7     589.4     162.7     162.7     105.6     105.6      34.3    0.000     0.000     0.000     0.000     0.000    1.40     0.00    0.00      0   -9.90   -9.00        9.6        9.6        9.7        9.7        9.7        9.7        9.7        9.7       10.2       11.7       11.7       11.7        0.0        0.0        0.0        0.0        0.0        0.0        0.0        0.0        0.0        0.0        0.0        0.0      8.5      15.6      19.1      27.1      35.0    391.85
    17     8  2011    48     2     233.7     8.2      0.9    0.0    8.2    0.0      0.0      0.0   -9.90      0.7      0.7    100     12.9     12.9   100     13.6    13.6     100     18.1    1.42      0      0      0      0      0    88.9    88.9      0     0.99     12.9     12.9     12.9   100    34.3     5.444    -9.9    0.000    0.000      98        0.00    0.000    0.000     233.7    233.7    1.42   132.8     598.2     165.1     165.1      99.4      99.4      34.8    0.000     0.000     0.000     0.000     0.000    1.42     0.00    0.00      0   -9.90   -9.00        9.3        9.3        9.4        9.4        9.4        9.4        9.4        9.4        9.8       11.7       11.7       11.7        0.0        0.0        0.0        0.0        0.0        0.0        0.0        0.0        0.0        0.0        0.0        0.0      8.2      13.0      22.3      27.7      33.1    391.85
    18     8  2011    49     2     233.4     3.7      9.9    0.0    3.7    0.0      0.0      0.0   -9.90      0.6      0.6    100     13.2     13.2   100     13.8    13.8     100     17.4    1.44      0      0      0      0      0    89.8    89.8      0     1.00     13.2     13.2     13.2   100    34.3     5.786    -9.9    0.000    0.000      98        0.00    0.000    0.000     233.4    233.4    1.44   134.8     606.9     167.5     167.5     101.5     101.5      35.3    0.000     0.000     0.000     0.000     0.000    1.44     0.00    0.00      0   -9.90   -9.00        9.4        9.4        9.4        9.4        9.4        9.4        9.4        9.4        9.6       11.7       11.7       11.7        0.0        0.0        0.0        0.0        0.0        0.0        0.0        0.0        0.0        0.0        0.0        0.0      3.7      13.2      20.8      26.7      32.5    391.85
    19     8  2011    50     2     235.8     3.0     15.0    0.0    3.0    0.0      0.0      0.0   -9.90      0.6      0.6    100     15.0     15.0   100     15.6    15.6     100     17.1    1.46      0      0      0      0      0    90.6    90.6      0     1.00     15.0     15.0     15.0   100    34.3     6.130    -9.9    0.000    0.000      98        0.00    0.000    0.000     235.8    235.8    1.46   139.1     615.5     169.9     169.9     108.3     108.3      35.8    0.000     0.000     0.000     0.000     0.000    1.46     0.00    0.00      0   -9.90   -9.00        9.5        9.5        9.6        9.6        9.6        9.6        9.6        9.6        9.6       11.7       11.7       11.7        0.0        0.0        0.0        0.0        0.0        0.0        0.0        0.0        0.0        0.0        0.0        0.0      3.0      14.9      20.1      27.4      34.6    391.85
    20     8  2011    51     2     236.1     4.9     11.3    0.0    4.9    0.0      0.0      0.0   -9.90      0.6      0.6    100     15.3     15.3   100     15.9    15.9     100     16.5    1.48      0      0      0      0      0    91.3    91.3      0     1.01     15.3     15.3     15.3   100    34.3     6.475    -9.9    0.000    0.000      98        0.00    0.000    0.000     236.1    236.1    1.48   141.4     624.2     172.3     172.3     110.5     110.5      36.3    0.000     0.000     0.000     0.000     0.000    1.48     0.00    0.00      0   -9.90   -9.00        9.6        9.6        9.6        9.6        9.6        9.6        9.6        9.6        9.6       11.7       11.7       11.7        0.0        0.0        0.0        0.0        0.0        0.0        0.0        0.0        0.0        0.0        0.0        0.0      4.9      15.2      19.1      26.7      34.4    391.85
    21     8  2011    52     2     234.4     3.8      9.3    0.0    3.8    0.0      0.0      0.0   -9.90      0.5      0.5    100     14.3     14.3   100     14.7    14.7     100     16.4    1.50      0      0      0      0      0    91.9    91.9      0     1.01     14.3     14.3     14.3   100    34.3     6.822    -9.9    0.000    0.000      98        0.00    0.000    0.000     234.4    234.4    1.50   141.7     632.8     174.7     174.7     108.6     108.6      36.8    0.000     0.000     0.000     0.000     0.000    1.50     0.00    0.00      0   -9.90   -9.00        9.4        9.4        9.5        9.5        9.5        9.5        9.5        9.5        9.5       11.7       11.7       11.7        0.0        0.0        0.0        0.0        0.0        0.0        0.0        0.0        0.0        0.0        0.0        0.0      3.8      14.1      18.7      25.7      32.7    391.85
    22     8  2011    53     2     234.7     1.7     13.4    0.0    1.7    0.0      0.0      0.0   -9.90      0.4      0.4    100     14.5     14.5   100     14.9    14.9     100     17.1    1.52      2      0      0      0      0    92.4    92.4      0     1.01     14.5     14.5     14.5   100    34.3     7.170    -9.9    0.000    0.000      98        0.00    0.000    0.000     234.7    234.7    1.52   143.8     641.3     177.0     177.0     110.6     110.6      37.3    0.000     0.000     0.000     0.000     0.000    1.52     0.00    0.00      0   -9.90   -9.00        9.5        9.5        9.5        9.5        9.5        9.5        9.5        9.5        9.5       11.7       11.7       11.7        0.0        0.0        0.0        0.0        0.0        0.0        0.0        0.0        0.0        0.0        0.0        0.0      1.7      14.3      20.2      26.9      33.7    391.85
    23     8  2011    54     2     236.8     1.9     16.5    0.0    1.9    0.0      0.0      0.0   -9.90      0.4      0.4    100     15.9     15.9   100     16.3    16.3     100     16.9    1.54      1      0      0      0      0    92.8    92.8      0     1.02     15.9     15.9     15.9   100    34.3     7.518    -9.9    0.000    0.000      98        0.00    0.000    0.000     236.8    236.8    1.54   147.9     649.8     179.4     179.4     116.4     116.4      37.8    0.000     0.000     0.000     0.000     0.000    1.54     0.00    0.00      0   -9.90   -9.00        9.6        9.6        9.7        9.7        9.7        9.7        9.7        9.7        9.6       11.7       11.7       11.7        0.0        0.0        0.0        0.0        0.0        0.0        0.0        0.0        0.0        0.0        0.0        0.0      1.9      15.6      19.8      27.6      35.4    391.85
    24     8  2011    55     2     236.1     6.7      8.5    0.0    6.7    0.0      0.0      0.0   -9.90      0.4      0.4    100     15.5     15.5   100     15.9    15.9     100     16.2    1.56      0      0      0      0      0    93.1    93.1      0     1.02     15.5     15.5     15.5   100    34.3     7.868    -9.9    0.000    0.000      99        0.00    0.000    0.000     236.1    236.1    1.56   149.3     658.3     181.7     181.7     116.7     116.7      38.3    0.000     0.000     0.000     0.000     0.000    1.56     0.00    0.00      0   -9.90   -9.00        9.6        9.6        9.6        9.6        9.6        9.6        9.6        9.6        9.6       11.6       11.7       11.7        0.0        0.0        0.0        0.0        0.0        0.0        0.0        0.0        0.0        0.0        0.0        0.0      6.7      15.2      18.5      26.4      34.3    391.85
    25     8  2011    56     3     233.3     9.9      2.0    0.0    9.8    0.0      0.0      0.0   -9.90      0.3      0.3    100     14.2     14.2   100     14.5    14.5     100     17.3    1.58      0      0      0      0      0    93.4    93.4      0     1.02     14.2     14.2     14.2   100    34.3     8.218    -9.9    0.000    0.000      99        0.00    0.000    0.000     233.3    233.3    1.58   149.5     666.7     184.0     184.0     113.8     113.8      38.8    0.000     0.000     0.000     0.000     0.000    1.58     0.00    0.00      0   -9.90   -9.00        9.4        9.4        9.5        9.5        9.5        9.5        9.5        9.5        9.5       11.4       11.7       11.7        0.0        0.0        0.0        0.0        0.0        0.0        0.0        0.0        0.0        0.0        0.0        0.0      9.9      13.9      20.6      27.0      33.5    391.85
    26     8  2011    57     3     232.6     1.5     12.4    0.0    1.5    0.0      0.0      0.0   -9.90      0.3      0.3    100     14.3     14.3   100     14.7    14.7     100     16.9    1.60      3      0      0      0      0    93.6    93.6      0     1.02     14.3     14.3     14.3   100    34.3     8.569    -9.9    0.000    0.000      99        0.00    0.000    0.000     232.6    232.6    1.60   151.7     675.1     186.4     186.4     115.6     115.6      39.3    0.000     0.000     0.000     0.000     0.000    1.60     0.00    0.00      0   -9.90   -9.00        9.4        9.4        9.5        9.5        9.5        9.5        9.5        9.5        9.5       11.0       11.7       11.7        0.0        0.0        0.0        0.0        0.0        0.0        0.0        0.0        0.0        0.0        0.0        0.0      1.5      14.0      19.8      26.5      33.2    391.85
    27     8  2011    58     3     231.3     8.0      5.1    0.0    8.0    0.0      0.0      0.0   -9.90      0.3      0.3    100     14.2     14.2   100     14.5    14.5     100     16.8    1.62      0      0      0      0      0    93.8    93.8      0     1.02     14.2     14.2     14.2   100    34.3     8.920     1.5    0.135    0.150      99        0.02    0.000    0.000     231.3    231.3    1.62   153.3     683.5     188.7     188.7     116.5     116.5      39.8    0.000     0.000     0.000     0.000     0.000    1.62     0.00    0.00      0   -9.90   -9.00        9.4        9.4        9.5        9.5        9.5        9.5        9.5        9.5        9.5       10.6       11.7       11.7        0.0        0.0        0.0        0.0        0.0        0.0        0.0        0.0        0.0        0.0        0.0        0.0      8.0      13.9      19.5      26.2      32.8    391.85
    28     8  2011    59     3     231.2     2.2     12.6    0.0    2.2    0.0      0.0      0.0   -9.90      0.3      0.3    100     14.7     14.7   100     15.0    15.0     100     16.7    1.64      0      0      0      0      0    93.9    93.9      0     1.02     14.7     14.7     14.7   100    34.3     9.271     1.9    0.172    0.191      99        0.02    0.000    0.000     231.2    231.2    1.64   155.9     691.8     191.0     191.0     119.7     119.7      40.3    0.000     0.000     0.000     0.000     0.000    1.64     0.00    0.00      0   -9.90   -9.00        9.5        9.5        9.5        9.5        9.5        9.5        9.5        9.5        9.5       10.2       11.7       11.7        0.0        0.0        0.0        0.0        0.0        0.0        0.0        0.0        0.0        0.0        0.0        0.0      2.2      14.4      19.4      26.5      33.5    391.85
    29     8  2011    60     3     227.6     9.7      0.0    0.0    9.7    0.0      0.0      0.0   -9.90      0.2      0.2    100     13.0     13.0   100     13.2    13.2     100     17.0    1.66      0      0      0      0      0    94.0    94.0      0     1.03     13.0     13.0     13.0   100    34.3     9.622     2.3    0.218    0.242      99        0.03    0.000    0.000     227.6    227.6    1.66   154.4     700.1     193.3     193.3     115.2     115.2      40.8    0.000     0.000     0.000     0.000     0.000    1.66     0.00    0.00      0   -9.90   -9.00       16.2        6.6        6.7        8.3        9.5        9.5        9.5        9.5        9.5       10.2       11.7       11.7        0.0        0.0        0.0        0.0        0.0        0.0        0.0        0.0        0.0        0.0        0.0        0.0      9.7      12.7      20.1      25.8      31.5    391.85
    30     8  2011    61     3     231.2     5.9     13.2    0.0    5.9    0.0      0.0      0.0   -9.90      0.2      0.2    100     15.4     15.4   100     15.5    15.5     100     17.2    1.68      0      0      0      0      0    95.3    95.3      0     1.03     15.4     15.4     15.4   100    34.3     9.977     2.8    0.275    0.306      99        0.04    0.000    0.000     231.2    231.2    1.68   160.4     708.4     195.5     195.5     124.4     124.4      41.3    0.000     0.000     0.000     0.000     0.000    1.68     0.00    0.00      0   -9.90   -9.00        9.5        9.5        9.6        9.6        9.6        9.6        9.6        9.6        9.6        9.9       11.7       11.7        0.0        0.0        0.0        0.0        0.0        0.0        0.0        0.0        0.0        0.0        0.0        0.0      5.9      14.9      20.3      27.6      34.8    391.85
    31     8  2011    62     3     229.6     3.9      9.4    0.0    3.9    0.0      0.0      0.0   -9.90      0.1      0.1    100     14.7     14.7   100     14.9    14.9     100     16.9    1.70     -9      0      0      0      0    95.4    95.4      0     1.03     14.7     14.7     14.7   100    34.3    10.331     3.4    0.347    0.386      99        0.05    0.000    0.000     229.6    229.6    1.70   161.0     716.6     197.8     197.8     123.7     123.7      41.8    0.000     0.000     0.000     0.000     0.000    1.70     0.00    0.00      0   -9.90   -9.00        9.5        9.5        9.5        9.5        9.5        9.5        9.5        9.5        9.5        9.7       11.7       11.7        0.0        0.0        0.0        0.0        0.0        0.0        0.0        0.0        0.0        0.0        0.0        0.0      3.9      14.3      19.9      26.8      33.7    391.85
     1     9  2011    63     3     232.7    11.5      8.3    0.0   11.5    0.0      0.0      0.0   -9.90      0.1      0.1    100     16.6     16.6   100     16.7    16.7     100     16.6    1.71     -9      0      0      0      0    95.5    95.5      0     1.03     16.6     16.6     16.6   100    34.3    10.684     4.1    0.436    0.484      99        0.06    0.000    0.000     232.7    232.7    1.71   165.9     724.8     200.1     200.1     131.7     131.7      42.3    0.000     0.000     0.000     0.000     0.000    1.71     0.00    0.00      0   -9.90   -9.00        9.7        9.7        9.7        9.7        9.7        9.7        9.7        9.7        9.7        9.7       11.7       11.7        0.0        0.0        0.0        0.0        0.0        0.0        0.0        0.0        0.0        0.0        0.0        0.0     11.5      16.1      19.3      27.7      36.2    391.85
     2     9  2011    64     3     229.9    11.5      0.0    0.0   11.5    0.1      0.0      0.0   -9.90      0.1      0.1    100     14.1     14.1   100     14.2    14.2     100     17.3    1.73     -9      0      0      0      0    95.6    95.6      0     1.03     14.1     14.1     14.1   100    34.3    11.036     4.9    0.544    0.605      99        0.07    0.000    0.000     229.9    229.9    1.73   165.0     732.9     202.3     202.3     124.5     124.5      42.7    0.000     0.000     0.000     0.000     0.000    1.73     0.00    0.00      0   -9.90   -9.00       18.4        6.8        6.9        7.8        9.7        9.7        9.7        9.7        9.7        9.7       11.7       11.7        0.0        0.0        0.0        0.0        0.0        0.0        0.0        0.0        0.0        0.0        0.0        0.0     11.5      13.7      20.6      27.0      33.4    391.85
     3     9  2011    65     3     230.9     6.8      9.9    0.0    6.8    0.0      0.0      0.0   -9.90      0.1      0.1    100     15.5     15.5   100     15.7    15.7     100     16.9    1.75     -9      0      0      0      0    95.6    95.6      0     1.02     15.5     15.5     15.5   100    34.3    11.387     5.9    0.677    0.752      99        0.08    0.000    0.000     230.9    230.9    1.75   167.9     741.1     204.6     204.6     131.2     131.2      43.2    0.000     0.000     0.000     0.000     0.000    1.75     0.00    0.00      0   -9.90   -9.00        9.6        9.6        9.6        9.6        9.6        9.6        9.6        9.6        9.6        9.6       11.7       11.7        0.0        0.0        0.0        0.0        0.0        0.0        0.0        0.0        0.0        0.0        0.0        0.0      6.8      15.2      19.8      27.4      35.1    391.85
     4     9  2011    66     3     230.7     2.0     13.2    0.0    2.0    0.0      0.0      0.0   -9.90      0.1      0.1    100     15.4     15.4   100     15.5    15.5     100     17.2    1.77     -9      0      0      0      0    95.7    95.7      0     1.02     15.4     15.4     15.4   100    34.3    11.738     7.1    0.837    0.929      99        0.10    0.000    0.000     230.7    230.7    1.77   169.5     749.2     206.8     206.8     132.2     132.2      43.7    0.000     0.000     0.000     0.000     0.000    1.77     0.00    0.00      0   -9.90   -9.00        9.6        9.6        9.6        9.6        9.6        9.6        9.6        9.6        9.6        9.6       11.7       11.7        0.0        0.0        0.0        0.0        0.0        0.0        0.0        0.0        0.0        0.0        0.0        0.0      2.0      15.1      20.3      27.8      35.2    391.85
     5     9  2011    67     3     227.7     9.9      0.9    0.0    9.9    0.0      0.0      0.0   -9.90      0.1      0.1    100     13.7     13.7   100     13.8    13.8     100     17.3    1.79     -9      0      0      0      0    95.7    95.7      0     1.02     13.7     13.7     13.7   100    34.3    12.087     8.5    1.027    1.141      99        0.12    0.000    0.000     227.7    227.7    1.79   168.3     757.2     209.0     209.0     127.6     127.6      44.2    0.000     0.000     0.000     0.000     0.000    1.79     0.00    0.00      0   -9.90   -9.00        9.4        9.4        9.4        9.4        9.4        9.4        9.4        9.4        9.4        9.4       11.7       11.7        0.0        0.0        0.0        0.0        0.0        0.0        0.0        0.0        0.0        0.0        0.0        0.0      9.9      13.5      20.6      26.8      33.0    391.85
     6     9  2011    68     3     230.8     0.5     18.2    0.0    0.5    0.0      0.0      0.0   -9.90      0.1      0.1    100     15.5     15.5   100     15.6    15.6     100     15.7    1.81     -9      0      0      0      0    95.8    95.8      0     1.02     15.5     15.5     15.5   100    34.3    12.436    10.0    1.247    1.385      99        0.15    0.000    0.000     230.8    230.8    1.81   173.6     765.3     211.2     211.2     135.6     135.6      44.6    0.000     0.000     0.000     0.000     0.000    1.81     0.00    0.00      0   -9.90   -9.00        9.6        9.6        9.6        9.6        9.6        9.6        9.6        9.6        9.6        9.6       11.6       11.7        0.0        0.0        0.0        0.0        0.0        0.0        0.0        0.0        0.0        0.0        0.0        0.0      0.5      15.2      17.5      25.8      34.2    391.85
     7     9  2011    69     4     229.8     6.2      8.2    0.0    6.2    0.0      0.0      0.0   -9.90      0.1      0.1    100     15.2     15.2   100     15.3    15.3     100     17.1    1.83     -9      0      0      0      0    95.8    95.8      0     1.01     15.2     15.2     15.2   100    34.3    12.784    11.5    1.476    1.640      99        0.17    0.000    0.000     229.8    229.8    1.83   175.4     773.3     213.5     213.5     136.3     136.3      45.1    0.000     0.000     0.000     0.000     0.000    1.83     0.00    0.00      0   -9.90   -9.00        9.5        9.5        9.6        9.6        9.6        9.6        9.6        9.6        9.6        9.6       11.4       11.7        0.0        0.0        0.0        0.0        0.0        0.0        0.0        0.0        0.0        0.0        0.0        0.0      6.2      15.0      20.2      27.7      35.2    391.85
     8     9  2011    70     4     227.4    10.8      1.3    0.0   10.8    0.0      0.0      0.0   -9.90      0.1      0.1    100     14.4     14.4   100     14.5    14.5     100     17.1    1.85     -9      0      0      0      0    95.8    95.8      0     1.01     14.4     14.4     14.4   100    34.3    13.131    13.1    1.717    1.907      99        0.20    0.000    0.000     227.4    227.4    1.85   175.8     781.3     215.7     215.7     134.6     134.6      45.6    0.000     0.000     0.000     0.000     0.000    1.85     0.00    0.00      0   -9.90   -9.00        9.5        9.5        9.5        9.5        9.5        9.5        9.5        9.5        9.5        9.5       11.0       11.7        0.0        0.0        0.0        0.0        0.0        0.0        0.0        0.0        0.0        0.0        0.0        0.0     10.8      14.2      20.2      27.1      34.0    391.85
     9     9  2011    71     4     226.3     3.7      9.5    0.0    3.7    0.0      0.0      0.0   -9.90      0.1      0.1    100     14.3     14.3   100     14.4    14.4     100     16.7    1.87     -9      0      0      0      0    95.9    95.9      0     1.01     14.3     14.3     14.3   100    34.3    13.477    14.6    1.967    2.186      99        0.22    0.000    0.000     226.3    226.3    1.87   177.5     789.2     217.9     217.9     135.7     135.7      46.1    0.000     0.000     0.000     0.000     0.000    1.87     0.00    0.00      0   -9.90   -9.00        9.5        9.5        9.5        9.5        9.5        9.5        9.5        9.5        9.5        9.5       10.6       11.7        0.0        0.0        0.0        0.0        0.0        0.0        0.0        0.0        0.0        0.0        0.0        0.0      3.7      14.2      19.5      26.6      33.6    391.85
    10     9  2011    72     4     229.1     5.4     13.6    0.0    5.4    0.0      0.0      0.0   -9.90      0.1      0.1    100     16.1     16.1   100     16.2    16.2     100     17.2    1.89     -9      0      0      0      0    95.9    95.9      0     1.01     16.1     16.1     16.1   100    34.3    13.822    16.1    2.229    2.476      99        0.25    0.000    0.000     229.1    229.1    1.89   182.8     797.2     220.0     220.0     144.5     144.5      46.5    0.000     0.000     0.000     0.000     0.000    1.89     0.00    0.00      0   -9.90   -9.00        9.7        9.7        9.7        9.7        9.7        9.7        9.7        9.7        9.7        9.7       10.3       11.7        0.0        0.0        0.0        0.0        0.0        0.0        0.0        0.0        0.0        0.0        0.0        0.0      5.4      16.0      20.5      28.7      37.0    391.85
    11     9  2011    73     4     223.4     2.6      5.4    0.0    2.6    0.0      0.0      0.0   -9.90      0.1      0.1    100     13.6     13.6   100     13.7    13.7     100     17.1    1.90     -9      0      0      0      0    95.9    95.9      0     1.00     13.6     13.6     13.6   100    34.3    14.166    17.6    2.500    2.778      99        0.27    0.000    0.000     223.4    223.4    1.90   179.6     805.1     222.2     222.2     135.9     135.9      47.0    0.000     0.000     0.000     0.000     0.000    1.90     0.00    0.00      0   -9.90   -9.00        9.4        9.4        9.4        9.4        9.4        9.4        9.4        9.4        9.4        9.4        9.9       11.7        0.0        0.0        0.0        0.0        0.0        0.0        0.0        0.0        0.0        0.0        0.0        0.0      2.6      13.5      20.1      26.6      33.1    391.85
    12     9  2011    74     4     226.6     7.2     11.4    0.0    7.2    0.0      0.0      0.0   -9.90      0.1      0.1    100     15.4     15.4   100     15.5    15.5     100     16.8    1.92     -9      0      0      0      0    95.9    95.9      0     1.00     15.4     15.4     15.4   100    34.3    14.509    19.2    2.782    3.091      99        0.30    0.000    0.000     226.6    226.6    1.92   184.8     813.0     224.4     224.4     144.8     144.8      47.5    0.000     0.000     0.000     0.000     0.000    1.92     0.00    0.00      0   -9.90   -9.00        9.6        9.6        9.6        9.6        9.6        9.6        9.6        9.6        9.6        9.6        9.8       11.7        0.0        0.0        0.0        0.0        0.0        0.0        0.0        0.0        0.0        0.0        0.0        0.0      7.2      15.4      19.7      27.7      35.7    391.85
    13     9  2011    75     4     221.3     7.7      0.0    0.0    7.7    0.0      0.0      0.0   -9.90      0.1      0.1    100     12.8     12.8   100     12.9    12.9     100     16.9    1.94     -9      0      0      0      0    95.9    95.9      0     1.00     12.8     12.8     12.8   100    34.3    14.852    20.7    3.074    3.416      99        0.33    0.000    0.000     221.3    221.3    1.94   181.4     820.8     226.6     226.6     135.7     135.7      47.9    0.000     0.000     0.000     0.000     0.000    1.94     0.00    0.00      0   -9.90   -9.00       14.5        6.7        6.8        8.6        9.6        9.6        9.6        9.6        9.6        9.6        9.8       11.7        0.0        0.0        0.0        0.0        0.0        0.0        0.0        0.0        0.0        0.0        0.0        0.0      7.7      12.8      19.9      26.0      32.0    391.85
    14     9  2011    76     4     223.7     3.5     12.9    0.0    3.5    0.0      0.0      0.0   -9.90      0.1      0.1    100     13.9     13.9   100     14.1    14.1     100     16.9    1.96     -9      0     -9      0      0    95.3    95.3      0     0.98     13.9     13.9     13.9   100    34.3    15.189    22.2    3.375    3.751      99        0.35    0.000    0.000     223.7    223.7    1.96   185.8     828.6     228.7     228.7     142.4     142.4      48.4    0.000     0.000     0.000     0.000     0.000    1.96     0.00    0.00      0   -9.90   -9.00        9.5        9.5        9.5        9.5        9.5        9.5        9.5        9.5        9.5        9.5        9.6       11.7        0.0        0.0        0.0        0.0        0.0        0.0        0.0        0.0        0.0        0.0        0.0        0.0      3.5      14.1      19.7      26.8      33.9    391.85
    15     9  2011    77     4     222.4    11.7      0.5    0.0   11.6    0.0      0.0      0.0   -9.90      0.2      0.2    100     13.2     13.2   100     13.4    13.4     100     17.1    1.98     -9      0     -9      0      0    94.6    94.6      0     0.97     13.2     13.2     13.2   100    34.3    15.522    23.7    3.686    4.096      99        0.38    0.000    0.000     222.4    222.4    1.98   186.3     836.4     230.9     230.9     141.6     141.6      48.8    0.000     0.000     0.000     0.000     0.000    1.98     0.00    0.00      0   -9.90   -9.00        9.4        9.4        9.4        9.4        9.4        9.4        9.4        9.4        9.4        9.4        9.5       11.7        0.0        0.0        0.0        0.0        0.0        0.0        0.0        0.0        0.0        0.0        0.0        0.0     11.7      13.6      20.1      26.7      33.4    391.85
    16     9  2011    78     4     221.6    12.1      0.0    0.0   12.0    0.1      0.0      0.0   -9.90      0.3      0.3    100     12.5     12.5   100     12.8    12.8     100     17.0    2.00     -9      0     -9      0      0    93.9    93.9      0     0.96     12.5     12.5     12.5   100    34.3    15.850    25.3    4.006    4.451      99        0.41    0.000    0.000     221.6    221.6    2.00   187.3     844.2     233.0     233.0     140.8     140.8      49.3    0.000     0.000     0.000     0.000     0.000    2.00     0.00    0.00      0   -9.90   -9.00       18.5        6.5        6.6        8.6        9.4        9.4        9.4        9.4        9.4        9.4        9.5       11.7        0.0        0.0        0.0        0.0        0.0        0.0        0.0        0.0        0.0        0.0        0.0        0.0     12.1      13.1      20.0      26.3      32.6    391.85
    17     9  2011    79     4     222.5     7.4      6.8    0.0    7.4    0.0      0.0      0.0   -9.90      0.4      0.4    100     12.9     12.9   100     13.2    13.2     100     16.9    2.01     -9      0     -9      0      0    93.0    93.0      0     0.94     12.9     12.9     12.9   100    34.3    16.172    26.8    4.334    4.815      99        0.43    0.000    0.000     222.5    222.5    2.01   189.9     852.0     235.2     235.2     144.7     144.7      49.8    0.000     0.000     0.000     0.000     0.000    2.01     0.00    0.00      0   -9.90   -9.00        9.4        9.4        9.5        9.5        9.5        9.5        9.5        9.5        9.5        9.5        9.5       11.7        0.0        0.0        0.0        0.0        0.0        0.0        0.0        0.0        0.0        0.0        0.0        0.0      7.4      13.7      19.9      26.7      33.5    391.85
    18     9  2011    80     4     222.7     5.1      8.2    0.0    5.1    0.0      0.0      0.0   -9.90      0.4      0.4    100     12.7     12.7   100     13.1    13.1     100     17.0    2.03     -9      0     -9      0      0    92.0    92.0      0     0.92     12.7     12.7     12.7   100    34.3    16.487    28.3    4.670    5.188      99        0.46    0.000    0.000     222.7    222.7    2.03   191.8     859.7     237.3     237.3     146.3     146.3      50.2    0.000     0.000     0.000     0.000     0.000    2.03     0.00    0.00      0   -9.90   -9.00        9.4        9.4        9.5        9.5        9.5        9.5        9.5        9.5        9.5        9.5        9.5       11.7        0.0        0.0        0.0        0.0        0.0        0.0        0.0        0.0        0.0        0.0        0.0        0.0      5.1      13.8      20.1      26.9      33.7    391.85
    19     9  2011    81     4     222.2     5.7      6.5    0.0    5.7    0.0      0.0      0.0   -9.90      0.5      0.5    100     12.2     12.2   100     12.7    12.7     100     18.4    2.05     -9      0     -9      0      0    90.9    90.9      0     0.90     12.2     12.2     12.2   100    34.3    16.796    29.8    5.013    5.570      99        0.49    0.000    0.000     222.2    222.2    2.05   193.0     867.4     239.4     239.4     146.6     146.6      50.7    0.000     0.000     0.000     0.000     0.000    2.05     0.00    0.00      0   -9.90   -9.00        9.4        9.4        9.4        9.4        9.4        9.4        9.4        9.4        9.4        9.4        9.4       11.7        0.0        0.0        0.0        0.0        0.0        0.0        0.0        0.0        0.0        0.0        0.0        0.0      5.7      13.6      22.8      28.9      35.0    391.85
    20     9  2011    82     4     219.3     5.3      3.3    0.0    5.3    0.0      0.0      0.0   -9.90      0.6      0.6    100     10.9     10.9   100     11.5    11.5     100     17.5    2.07     -9      0     -9      0      0    89.6    89.6      0     0.88     10.9     10.9     10.9   100    34.3    17.096    31.4    5.363    5.959      99        0.52    0.000    0.000     219.3    219.3    2.07   192.7     875.1     241.5     241.5     142.9     142.9      51.1    0.000     0.000     0.000     0.000     0.000    2.07     0.00    0.00      0   -9.90   -9.00        9.3        9.3        9.3        9.3        9.3        9.3        9.3        9.3        9.3        9.3        9.3       11.5        0.0        0.0        0.0        0.0        0.0        0.0        0.0        0.0        0.0        0.0        0.0        0.0      5.3      12.4      21.1      26.7      32.4    391.85
    21     9  2011    83     4     221.2     1.6     12.7    0.0    1.6    0.0      0.0      0.0   -9.90      0.8      0.8    100     11.6     11.6   100     12.4    12.4     100     16.8    2.09     -9      0     -9      0      0    88.2    88.2      0     0.85     11.6     11.6     11.6   100    34.3    17.388    32.9    5.720    6.356      99        0.55    0.000    0.000     221.2    221.2    2.09   197.3     882.8     243.7     243.7     149.6     149.6      51.6    0.000     0.000     0.000     0.000     0.000    2.09     0.00    0.00      0   -9.90   -9.00        9.4        9.4        9.4        9.4        9.4        9.4        9.4        9.4        9.4        9.4        9.4       11.2        0.0        0.0        0.0        0.0        0.0        0.0        0.0        0.0        0.0        0.0        0.0        0.0      1.6      13.7      19.6      26.5      33.5    391.85
    22     9  2011    84     4     222.3     4.3      9.8    0.0    4.3    0.0      0.0      0.0   -9.90      1.0      1.0    100     12.0     12.0   100     13.0    13.0     100     17.6    2.10     -9      0     -9      0      0    86.6    86.6      0     0.83     12.0     12.0     12.0   100    34.3    17.671    34.4    6.083    6.759      99        0.57    0.000    0.000     222.3    222.3    2.10   201.1     890.4     245.8     245.8     155.1     155.1      52.0    0.000     0.000     0.000     0.000     0.000    2.10     0.00    0.00      0   -9.90   -9.00        9.5        9.5        9.5        9.5        9.5        9.5        9.5        9.5        9.5        9.5        9.5       10.8        0.0        0.0        0.0        0.0        0.0        0.0        0.0        0.0        0.0        0.0        0.0        0.0      4.3      14.6      21.2      28.5      35.8    391.85
    23     9  2011    85     4     218.5     3.9      3.9    0.0    3.9    0.0      0.0      0.0   -9.90      1.0      1.0    100     10.6     10.6   100     11.6    11.6     100     17.8    2.12     -9      0     -9      0      0    84.8    84.8      0     0.80     10.6     10.6     10.6   100    34.3    17.944    35.9    6.450    7.167      99        0.60    0.000    0.000     218.5    218.5    2.12   200.0     898.0     247.9     247.9     150.7     150.7      52.5    0.000     0.000     0.000     0.000     0.000    2.12     0.00    0.00      0   -9.90   -9.00        9.4        9.4        9.4        9.4        9.4        9.4        9.4        9.4        9.4        9.4        9.4       10.4        0.0        0.0        0.0        0.0        0.0        0.0        0.0        0.0        0.0        0.0        0.0        0.0      3.9      13.3      21.6      27.8      34.1    391.85
    24     9  2011    86     4     218.3     8.9      2.6    0.0    8.9    0.0      0.0      0.0   -9.90      1.2      1.2    100     10.4     10.4   100     11.6    11.6     100     17.1    2.14     -9      0     -9      0      0    82.8    82.8      0     0.76     10.4     10.4     10.4   100    34.3    18.206    37.5    6.822    7.580      99        0.63    0.000    0.000     218.3    218.3    2.14   202.3     905.6     250.0     250.0     153.5     153.5      52.9    0.000     0.000     0.000     0.000     0.000    2.14     0.00    0.00      0   -9.90   -9.00        9.4        9.4        9.4        9.4        9.4        9.4        9.4        9.4        9.4        9.4        9.4       10.1        0.0        0.0        0.0        0.0        0.0        0.0        0.0        0.0        0.0        0.0        0.0        0.0      8.9      13.7      20.2      27.1      33.9    391.85
    25     9  2011    87     4     217.1     3.8      6.1    0.0    3.8    0.0      0.0      0.0   -9.90      1.3      1.3    100      9.8      9.8   100     11.1    11.1     100     16.5    2.16     -9      0     -9      0      0    80.5    80.5      0     0.73      9.8      9.8      9.8   100    34.3    18.455    39.0    7.197    7.997      99        0.66    0.000    0.000     217.1    217.1    2.16   203.3     913.2     252.1     252.1     153.7     153.7      53.4    0.000     0.000     0.000     0.000     0.000    2.16     0.00    0.00      0   -9.90   -9.00        9.4        9.4        9.4        9.4        9.4        9.4        9.4        9.4        9.4        9.4        9.4        9.8        0.0        0.0        0.0        0.0        0.0        0.0        0.0        0.0        0.0        0.0        0.0        0.0      3.8      13.4      19.0      26.0      33.0    391.85
[...]
    10    12  2015    -9     0     214.1    11.1      0.0    0.0   11.1    0.0      0.0      0.0   -9.90     11.8      7.3     62      0.0      0.0   100     11.8     7.3      62     17.3    2.28     -9     -9     -9      0     -9     0.0     0.0      0    -9.00      0.0      0.0      0.0   100    34.5    20.024    48.2    9.647   10.718     100        0.82    0.000    0.000     214.1    214.1    2.28   212.4     965.7     266.5     266.5     149.4     161.0      56.5    0.000     0.000     0.000     0.000     0.000    2.28     0.00    0.00      0   -9.90   -9.00        5.0        8.8       10.7        9.5        9.5        9.5        9.5        9.5        9.5        9.5        9.5        9.5        0.0        0.0        0.0        0.0        0.0        0.0        0.0        0.0        0.0        0.0        0.0        0.0     11.1      10.7      20.5      27.0      33.5    401.01
    11    12  2015    -9     0     212.6     3.2      0.0    0.0    3.2    0.0      0.0      0.0   -9.90     11.5      4.7     41      0.0      0.0   100     11.5     4.7      41     17.1    2.28     -9     -9     -9      0     -9     0.0     0.0      0    -9.00      0.0      0.0      0.0   100    34.5    20.024    48.2    9.647   10.718     100        0.82    0.000    0.000     212.6    212.6    2.28   210.9     965.7     266.5     266.5     148.3     161.0      56.5    0.000     0.000     0.000     0.000     0.000    2.28     0.00    0.00      0   -9.90   -9.00        3.5        8.8       10.7        9.5        9.5        9.5        9.5        9.5        9.5        9.5        9.5        9.5        0.0        0.0        0.0        0.0        0.0        0.0        0.0        0.0        0.0        0.0        0.0        0.0      3.2      10.5      20.2      26.5      32.9    401.01
    12    12  2015    -9     0     212.2     4.9      0.0    0.0    4.9    0.0      0.0      0.0   -9.90     12.1      5.2     43      0.0      0.0   100     12.1     5.2      43     17.3    2.28     -9     -9     -9      0     -9     0.0     0.0      0    -9.00      0.0      0.0      0.0   100    34.5    20.024    48.2    9.647   10.718     100        0.82    0.000    0.000     212.2    212.2    2.28   210.6     965.7     266.5     266.5     150.6     161.0      56.5    0.000     0.000     0.000     0.000     0.000    2.28     0.00    0.00      0   -9.90   -9.00        3.1        8.8       10.7        9.5        9.5        9.5        9.5        9.5        9.5        9.5        9.5        9.5        0.0        0.0        0.0        0.0        0.0        0.0        0.0        0.0        0.0        0.0        0.0        0.0      4.9      11.0      20.6      27.3      34.0    401.01
    13    12  2015    -9     0     211.3     3.0      0.0    0.0    3.0    0.0      0.0      0.0   -9.90     12.2      3.9     32      0.0      0.0   100     12.2     3.9      32     16.7    2.28     -9     -9     -9      0     -9     0.0     0.0      0    -9.00      0.0      0.0      0.0   100    34.5    20.024    48.2    9.647   10.718     100        0.82    0.000    0.000     211.3    211.3    2.28   209.7     965.7     266.5     266.5     151.1     161.0      56.5    0.000     0.000     0.000     0.000     0.000    2.28     0.00    0.00      0   -9.90   -9.00        2.2        8.8       10.7        9.5        9.5        9.5        9.5        9.5        9.5        9.5        9.5        9.5        0.0        0.0        0.0        0.0        0.0        0.0        0.0        0.0        0.0        0.0        0.0        0.0      3.0      11.1      19.4      26.5      33.6    401.01
    14    12  2015    -9     0     210.5     1.9      0.0    0.0    1.9    0.0      0.0      0.0   -9.90     13.6      2.8     20      0.0      0.0   100     13.6     2.8      20     16.4    2.28     -9     -9     -9      0     -9     0.0     0.0      0    -9.00      0.0      0.0      0.0   100    34.5    20.024    48.2    9.647   10.718     100        0.82    0.000    0.000     210.5    210.5    2.28   208.8     965.7     266.5     266.5     157.3     161.0      56.5    0.000     0.000     0.000     0.000     0.000    2.28     0.00    0.00      0   -9.90   -9.00        1.4        8.8       10.7        9.5        9.5        9.5        9.5        9.5        9.5        9.5        9.5        9.5        0.0        0.0        0.0        0.0        0.0        0.0        0.0        0.0        0.0        0.0        0.0        0.0      1.9      12.3      18.8      27.3      35.8    401.01
    15    12  2015    -9     0     210.0     3.8      0.0    0.0    3.8    0.0      0.0      0.0   -9.90     12.2      4.4     36      0.0      0.0   100     12.2     4.4      36     16.8    2.28     -9     -9     -9      0     -9     0.0     0.0      0    -9.00      0.0      0.0      0.0   100    34.5    20.024    48.2    9.647   10.718     100        0.82    0.000    0.000     210.0    210.0    2.28   208.3     965.7     266.5     266.5     151.4     161.0      56.5    0.000     0.000     0.000     0.000     0.000    2.28     0.00    0.00      0   -9.90   -9.00        1.2        8.6       10.7        9.5        9.5        9.5        9.5        9.5        9.5        9.5        9.5        9.5        0.0        0.0        0.0        0.0        0.0        0.0        0.0        0.0        0.0        0.0        0.0        0.0      3.8      11.1      19.7      26.8      33.9    401.01
    16    12  2015    -9     0     209.3     1.1      0.0    0.0    1.1    0.0      0.0      0.0   -9.90     12.4      1.8     14      0.0      0.0   100     12.4     1.8      14     17.0    2.28     -9     -9     -9      0     -9     0.0     0.0      0    -9.00      0.0      0.0      0.0   100    34.5    20.024    48.2    9.647   10.718     100        0.82    0.000    0.000     209.3    209.3    2.28   207.6     965.7     266.5     266.5     152.0     161.0      56.5    0.000     0.000     0.000     0.000     0.000    2.28     0.00    0.00      0   -9.90   -9.00        1.2        8.2       10.7        9.5        9.5        9.5        9.5        9.5        9.5        9.5        9.5        9.5        0.0        0.0        0.0        0.0        0.0        0.0        0.0        0.0        0.0        0.0        0.0        0.0      1.1      11.3      20.0      27.2      34.3    401.01
    17    12  2015    -9     0     212.0     8.1      0.0    0.0    8.1    0.0      0.0      0.0   -9.90     11.8      5.4     46      0.0      0.0   100     11.8     5.4      46     16.7    2.28     -9     -9     -9      0     -9     0.0     0.0      0    -9.00      0.0      0.0      0.0   100    34.5    20.024    48.2    9.647   10.718     100        0.82    0.000    0.000     212.0    212.0    2.28   210.3     965.7     266.5     266.5     149.5     161.0      56.5    0.000     0.000     0.000     0.000     0.000    2.28     0.00    0.00      0   -9.90   -9.00        3.9        8.2       10.7        9.5        9.5        9.5        9.5        9.5        9.5        9.5        9.5        9.5        0.0        0.0        0.0        0.0        0.0        0.0        0.0        0.0        0.0        0.0        0.0        0.0      8.1      10.8      19.3      26.1      32.9    401.01
    18    12  2015    -9     0     210.9     3.5      0.0    0.0    3.5    0.0      0.0      0.0   -9.90     13.0      4.6     35      0.0      0.0   100     13.0     4.6      35     16.9    2.28     -9     -9     -9      0     -9     0.0     0.0      0    -9.00      0.0      0.0      0.0   100    34.5    20.024    48.2    9.647   10.718     100        0.82    0.000    0.000     210.9    210.9    2.28   209.3     965.7     266.5     266.5     154.9     161.0      56.5    0.000     0.000     0.000     0.000     0.000    2.28     0.00    0.00      0   -9.90   -9.00        2.8        8.2       10.7        9.5        9.5        9.5        9.5        9.5        9.5        9.5        9.5        9.5        0.0        0.0        0.0        0.0        0.0        0.0        0.0        0.0        0.0        0.0        0.0        0.0      3.5      11.9      19.8      27.5      35.3    401.01
    19    12  2015    -9     0     210.2     3.6      0.0    0.0    3.6    0.0      0.0      0.0   -9.90     13.2      4.3     33      0.0      0.0   100     13.2     4.3      33     17.0    2.28     -9     -9     -9      0     -9     0.0     0.0      0    -9.00      0.0      0.0      0.0   100    34.5    20.024    48.2    9.647   10.718     100        0.82    0.000    0.000     210.2    210.2    2.28   208.5     965.7     266.5     266.5     155.6     161.0      56.5    0.000     0.000     0.000     0.000     0.000    2.28     0.00    0.00      0   -9.90   -9.00        2.0        8.2       10.7        9.5        9.5        9.5        9.5        9.5        9.5        9.5        9.5        9.5        0.0        0.0        0.0        0.0        0.0        0.0        0.0        0.0        0.0        0.0        0.0        0.0      3.6      12.0      20.0      27.9      35.7    401.01
    20    12  2015    -9     0     209.5     2.8      0.0    0.0    2.8    0.0      0.0      0.0   -9.90     12.7      3.5     27      0.0      0.0   100     12.7     3.5      27     16.3    2.28     -9     -9     -9      0     -9     0.0     0.0      0    -9.00      0.0      0.0      0.0   100    34.5    20.024    48.2    9.647   10.718     100        0.82    0.000    0.000     209.5    209.5    2.28   207.9     965.7     266.5     266.5     153.2     161.0      56.5    0.000     0.000     0.000     0.000     0.000    2.28     0.00    0.00      0   -9.90   -9.00        1.4        8.2       10.7        9.5        9.5        9.5        9.5        9.5        9.5        9.5        9.5        9.5        0.0        0.0        0.0        0.0        0.0        0.0        0.0        0.0        0.0        0.0        0.0        0.0      2.8      11.5      18.6      26.3      34.0    401.01
    21    12  2015    -9     0     210.9     6.1      0.0    0.0    6.1    0.0      0.0      0.0   -9.90     10.5      4.7     44      0.0      0.0   100     10.5     4.7      44     17.2    2.28     -9     -9     -9      0     -9     0.0     0.0      0    -9.00      0.0      0.0      0.0   100    34.5    20.024    48.2    9.647   10.718     100        0.82    0.000    0.000     210.9    210.9    2.28   209.3     965.7     266.5     266.5     143.9     161.0      56.5    0.000     0.000     0.000     0.000     0.000    2.28     0.00    0.00      0   -9.90   -9.00        2.8        8.2       10.7        9.5        9.5        9.5        9.5        9.5        9.5        9.5        9.5        9.5        0.0        0.0        0.0        0.0        0.0        0.0        0.0        0.0        0.0        0.0        0.0        0.0      6.1       9.6      20.4      25.9      31.3    401.01
    22    12  2015    -9     0     210.2     3.2      0.0    0.0    3.2    0.0      0.0      0.0   -9.90     12.8      4.0     31      0.0      0.0   100     12.8     4.0      31     16.9    2.28     -9     -9     -9      0     -9     0.0     0.0      0    -9.00      0.0      0.0      0.0   100    34.5    20.024    48.2    9.647   10.718     100        0.82    0.000    0.000     210.2    210.2    2.28   208.5     965.7     266.5     266.5     153.8     161.0      56.5    0.000     0.000     0.000     0.000     0.000    2.28     0.00    0.00      0   -9.90   -9.00        2.0        8.2       10.7        9.5        9.5        9.5        9.5        9.5        9.5        9.5        9.5        9.5        0.0        0.0        0.0        0.0        0.0        0.0        0.0        0.0        0.0        0.0        0.0        0.0      3.2      11.6      19.8      27.3      34.8    401.01
    23    12  2015    -9     0     211.7     6.8      0.0    0.0    6.8    0.0      0.0      0.0   -9.90     12.1      5.3     44      0.0      0.0   100     12.1     5.3      44     16.7    2.28     -9     -9     -9      0     -9     0.0     0.0      0    -9.00      0.0      0.0      0.0   100    34.5    20.024    48.2    9.647   10.718     100        0.82    0.000    0.000     211.7    211.7    2.28   210.0     965.7     266.5     266.5     150.8     161.0      56.5    0.000     0.000     0.000     0.000     0.000    2.28     0.00    0.00      0   -9.90   -9.00        3.6        8.2       10.7        9.5        9.5        9.5        9.5        9.5        9.5        9.5        9.5        9.5        0.0        0.0        0.0        0.0        0.0        0.0        0.0        0.0        0.0        0.0        0.0        0.0      6.8      11.0      19.4      26.4      33.4    401.01
    24    12  2015    -9     0     214.5    10.6      0.0    0.0   10.6    0.0      0.0      0.0   -9.90     11.6      7.8     68      0.0      0.0   100     11.6     7.8      68     17.3    2.28     -9     -9     -9      0     -9     0.0     0.0      0    -9.00      0.0      0.0      0.0   100    34.5    20.024    48.2    9.647   10.718     100        0.82    0.000    0.000     214.5    214.5    2.28   212.8     965.7     266.5     266.5     148.4     161.0      56.5    0.000     0.000     0.000     0.000     0.000    2.28     0.00    0.00      0   -9.90   -9.00        6.4        8.2       10.7        9.5        9.5        9.5        9.5        9.5        9.5        9.5        9.5        9.5        0.0        0.0        0.0        0.0        0.0        0.0        0.0        0.0        0.0        0.0        0.0        0.0     10.6      10.5      20.7      26.9      33.2    401.01
    25    12  2015    -9     0     212.5     4.2      0.0    0.0    4.2    0.0      0.0      0.0   -9.90     13.0      6.3     48      0.0      0.0   100     13.0     6.3      48     16.6    2.28     -9     -9     -9      0     -9     0.0     0.0      0    -9.00      0.0      0.0      0.0   100    34.5    20.024    48.2    9.647   10.718     100        0.82    0.000    0.000     212.5    212.5    2.28   210.8     965.7     266.5     266.5     154.8     161.0      56.5    0.000     0.000     0.000     0.000     0.000    2.28     0.00    0.00      0   -9.90   -9.00        4.4        8.2       10.7        9.5        9.5        9.5        9.5        9.5        9.5        9.5        9.5        9.5        0.0        0.0        0.0        0.0        0.0        0.0        0.0        0.0        0.0        0.0        0.0        0.0      4.2      11.8      19.2      27.0      34.9    401.01
    26    12  2015    -9     0     211.7     4.5      0.0    0.0    4.5    0.0      0.0      0.0   -9.90     12.3      5.3     43      0.0      0.0   100     12.3     5.3      43     16.4    2.28     -9     -9     -9      0     -9     0.0     0.0      0    -9.00      0.0      0.0      0.0   100    34.5    20.024    48.2    9.647   10.718     100        0.82    0.000    0.000     211.7    211.7    2.28   210.0     965.7     266.5     266.5     151.6     161.0      56.5    0.000     0.000     0.000     0.000     0.000    2.28     0.00    0.00      0   -9.90   -9.00        3.6        8.2       10.7        9.5        9.5        9.5        9.5        9.5        9.5        9.5        9.5        9.5        0.0        0.0        0.0        0.0        0.0        0.0        0.0        0.0        0.0        0.0        0.0        0.0      4.5      11.2      18.7      26.0      33.4    401.01
    27    12  2015    -9     0     210.6     0.3      0.0    0.0    0.3    0.0      0.0      0.0   -9.90     11.6      1.4     12      0.0      0.0   100     11.6     1.4      12     18.0    2.28     -9     -9     -9      0     -9     0.0     0.0      0    -9.00      0.0      0.0      0.0   100    34.5    20.024    48.2    9.647   10.718     100        0.82    0.000    0.000     210.6    210.6    2.28   208.9     965.7     266.5     266.5     148.5     161.0      56.5    0.000     0.000     0.000     0.000     0.000    2.28     0.00    0.00      0   -9.90   -9.00        2.4        8.2       10.7        9.5        9.5        9.5        9.5        9.5        9.5        9.5        9.5        9.5        0.0        0.0        0.0        0.0        0.0        0.0        0.0        0.0        0.0        0.0        0.0        0.0      0.3      10.5      22.0      27.9      33.9    401.01
    28    12  2015    -9     0     214.0    11.3      0.0    0.0   11.3    0.0      0.0      0.0   -9.90     11.8      7.8     66      0.0      0.0   100     11.8     7.8      66     17.5    2.28     -9     -9     -9      0     -9     0.0     0.0      0    -9.00      0.0      0.0      0.0   100    34.5    20.024    48.2    9.647   10.718     100        0.82    0.000    0.000     214.0    214.0    2.28   212.3     965.7     266.5     266.5     149.5     161.0      56.5    0.000     0.000     0.000     0.000     0.000    2.28     0.00    0.00      0   -9.90   -9.00        5.9        8.2       10.7        9.5        9.5        9.5        9.5        9.5        9.5        9.5        9.5        9.5        0.0        0.0        0.0        0.0        0.0        0.0        0.0        0.0        0.0        0.0        0.0        0.0     11.3      10.7      21.1      27.4      33.7    401.01
    29    12  2015    -9     0     212.8     5.2      0.0    0.0    5.2    0.0      0.0      0.0   -9.90     12.3      6.4     52      0.0      0.0   100     12.3     6.4      52     16.5    2.28     -9     -9     -9      0     -9     0.0     0.0      0    -9.00      0.0      0.0      0.0   100    34.5    20.024    48.2    9.647   10.718     100        0.82    0.000    0.000     212.8    212.8    2.28   211.1     965.7     266.5     266.5     151.4     161.0      56.5    0.000     0.000     0.000     0.000     0.000    2.28     0.00    0.00      0   -9.90   -9.00        4.7        8.2       10.7        9.5        9.5        9.5        9.5        9.5        9.5        9.5        9.5        9.5        0.0        0.0        0.0        0.0        0.0        0.0        0.0        0.0        0.0        0.0        0.0        0.0      5.2      11.1      19.1      26.2      33.4    401.01
    30    12  2015    -9     0     212.0     4.8      0.0    0.0    4.8    0.0      0.0      0.0   -9.90     12.3      5.5     45      0.0      0.0   100     12.3     5.5      45     16.9    2.28     -9     -9     -9      0     -9     0.0     0.0      0    -9.00      0.0      0.0      0.0   100    34.5    20.024    48.2    9.647   10.718     100        0.82    0.000    0.000     212.0    212.0    2.28   210.3     965.7     266.5     266.5     151.4     161.0      56.5    0.000     0.000     0.000     0.000     0.000    2.28     0.00    0.00      0   -9.90   -9.00        3.9        8.2       10.7        9.5        9.5        9.5        9.5        9.5        9.5        9.5        9.5        9.5        0.0        0.0        0.0        0.0        0.0        0.0        0.0        0.0        0.0        0.0        0.0        0.0      4.8      11.1      19.8      26.8      33.8    401.01
    31    12  2015    -9     0     213.1     8.4      0.0    0.0    8.4    0.0      0.0      0.0   -9.90     12.9      7.3     57      0.0      0.0   100     12.9     7.3      57     16.6    2.28     -9     -9     -9      0     -9     0.0     0.0      0    -9.00      0.0      0.0      0.0   100    34.5    20.024    48.2    9.647   10.718     100        0.82    0.000    0.000     213.1    213.1    2.28   211.4     965.7     266.5     266.5     154.2     161.0      56.5    0.000     0.000     0.000     0.000     0.000    2.28     0.00    0.00      0   -9.90   -9.00        5.0        8.2       10.7        9.5        9.5        9.5        9.5        9.5        9.5        9.5        9.5        9.5        0.0        0.0        0.0        0.0        0.0        0.0        0.0        0.0        0.0        0.0        0.0        0.0      8.4      11.7      19.1      26.8      34.5    401.01
