AquaCrop 7.1 (August 2023) - Output created on (date) : 16-01-2026   at (time) : 12:17:08

    RunNr     Day1   Month1    Year1     Rain      ETo       GD     CO2      Irri   Infilt   Runoff    Drain   Upflow        E     E/Ex       Tr      TrW   Tr/Trx    SaltIn   SaltOut    SaltUp  SaltProf     Cycle   SaltStr  FertStr  WeedStr  TempStr   ExpStr   StoStr  BioMass  Brelative   HI    Y(dry)  Y(fresh)    WPet      Bin     Bout     DayN   MonthN    YearN
                                           mm       mm  degC.day    ppm        mm       mm       mm       mm       mm       mm        %       mm       mm        %    ton/ha    ton/ha    ton/ha    ton/ha      days       %        %        %        %        %        %    ton/ha        %       %    ton/ha   ton/ha    kg/m3   ton/ha   ton/ha
   Tot(1)        1        7     2011   1083.8   2426.7   3123.2   391.85    550.8   1080.5      3.3      0.0      0.0    860.4       50    826.1    826.1      100     0.000     0.000     0.000     0.000       89        0       30        0        0        1        0    19.847       99     48.1    9.556   10.617     0.82    0.000    0.000       31       12     2011  cluster_173.PRM
   Tot(2)        1        7     2012   1185.1   2432.5   3119.9   394.06    484.8   1179.2      5.8      0.0      0.0    892.2       51    820.6    820.6      100     0.000     0.000     0.000     0.000       89        0       30        0        0        2        0    19.541       98     48.2    9.414   10.460     0.82    0.000    0.000       31       12     2012  cluster_173.PRM
   Tot(3)        1        7     2013   1093.6   2433.1   3125.1   396.74    553.9   1090.8      2.7      0.0      0.0    867.0       50    826.6    826.6      100     0.000     0.000     0.000     0.000       89        0       30        0        0        1        0    19.779       99     48.2    9.529   10.588     0.81    0.000    0.000       31       12     2013  cluster_173.PRM
   Tot(4)        1        7     2014   1198.5   2423.9   3121.9   398.81    460.7   1193.5      5.0      4.0      0.0    882.5       51    811.3    811.3      100     0.000     0.000     0.000     0.000       89        0       30        0        0        2        0    19.566       98     48.2    9.426   10.473     0.85    0.000    0.000       31       12     2014  cluster_173.PRM
   Tot(5)        1        7     2015   1129.3   2410.3   3127.2   401.01    533.8   1126.9      2.4      0.0      0.0    890.8       52    825.4    825.4      100     0.000     0.000     0.000     0.000       89        0       30        0        0        0        0    20.024      100     48.2    9.647   10.718     0.82    0.000    0.000       31       12     2015  cluster_173.PRM
