AquaCrop 7.1 (August 2023) - Output created on (date) : 16-01-2026   at (time) : 12:17:05

   Run:   1
   Day Month  Year   DAP Stage   WC(2.30)   Rain     Irri   Surf   Infilt   RO    Drain       CR    Zgwt       Ex       E     E/Ex     Trx       Tr  Tr/Trx    ETx      ET  ET/ETx      GD       Z     StExp  StSto  StSen StSalt StWeed   CC      CCw     StTr  Kc(Tr)     Trx       Tr      TrW  Tr/Trx   WP    Biomass     HI    Y(dry)  Y(fresh)  Brelative    WPet      Bin     Bout  WC(2.30) Wr(2.30)     Z       Wr    Wr(SAT)    Wr(FC)   Wr(exp)   Wr(sto)   Wr(sen)   Wr(PWP)    SaltIn    SaltOut   SaltUp   Salt(2.30)  SaltZ     Z       ECe    ECsw   StSalt  Zgwt    ECgw       WC01       WC 2       WC 3       WC 4       WC 5       WC 6       WC 7       WC 8       WC 9       WC10       WC11       WC12      ECe01      ECe 2      ECe 3      ECe 4      ECe 5      ECe 6      ECe 7      ECe 8      ECe 9      ECe10      ECe11      ECe12     Rain       ETo      Tmin      Tavg      Tmax      CO2
                                      mm      mm       mm     mm     mm     mm       mm       mm      m        mm       mm     %        mm       mm    %        mm      mm       %  degC-day     m       %      %      %      %      %      %       %       %       -        mm       mm       mm    %     g/m2    ton/ha      %    ton/ha   ton/ha       %       kg/m3   ton/ha   ton/ha      mm       mm       m       mm        mm        mm        mm        mm        mm         mm    ton/ha    ton/ha    ton/ha    ton/ha    ton/ha     m      dS/m    dS/m      %     m      dS/m       0.05       0.18       0.33       0.48       0.63       0.80       1.00       1.20       1.43       1.68       1.93       2.18       0.05       0.18       0.33       0.48       0.63       0.80       1.00       1.20       1.43       1.68       1.93       2.18       mm        mm     degC      degC      degC       ppm
     1     7  2011     1     1     264.0     5.3      0.0    0.0    5.3    0.0      0.0      0.0   -9.90     17.2     10.0     58      0.0      0.0   100     17.2    10.0      58     16.3    0.30     -9     -9     -9      0     -9     0.0     0.0      0    -9.00      0.0      0.0      0.0   100     0.0     0.000    -9.9    0.000    0.000      -9        0.00    0.000    0.000     264.0    264.0    0.30    30.0     125.1      34.6      30.7      22.3      15.5       6.9    0.000     0.000     0.000     0.000     0.000    0.30     0.00    0.00      0   -9.90   -9.00        7.0       11.7       11.7       11.7       11.7       11.7       11.7       11.7       11.7       11.7       11.7       11.7        0.0        0.0        0.0        0.0        0.0        0.0        0.0        0.0        0.0        0.0        0.0        0.0      5.3      15.7      18.6      26.7      34.8    391.85
     2     7  2011     2     1     261.9     6.9      0.0    0.0    6.9    0.0      0.0      0.0   -9.90     15.6      9.0     58      0.0      0.0   100     15.6     9.0      58     17.6    0.30     -9     -9     -9      0     -9     0.0     0.0      0    -9.00      0.0      0.0      0.0   100     0.0     0.000    -9.9    0.000    0.000      -9        0.00    0.000    0.000     261.9    261.9    0.30    27.9     125.1      34.6      30.7      21.4      15.5       6.9    0.000     0.000     0.000     0.000     0.000    0.30     0.00    0.00      0   -9.90   -9.00        4.9       11.7       11.7       11.7       11.7       11.7       11.7       11.7       11.7       11.7       11.7       11.7        0.0        0.0        0.0        0.0        0.0        0.0        0.0        0.0        0.0        0.0        0.0        0.0      6.9      14.2      21.3      27.6      33.9    391.85
     3     7  2011     3     1     261.9     9.6      0.0    0.0    9.6    0.0      0.0      0.0   -9.90     17.4      9.6     55      0.0      0.0   100     17.4     9.6      55     16.0    0.30     -9     -9     -9      0     -9     0.0     0.0      0    -9.00      0.0      0.0      0.0   100     0.0     0.000    -9.9    0.000    0.000      -9        0.00    0.000    0.000     261.9    261.9    0.30    27.9     125.1      34.6      30.7      22.4      15.5       6.9    0.000     0.000     0.000     0.000     0.000    0.30     0.00    0.00      0   -9.90   -9.00        4.9       11.7       11.7       11.7       11.7       11.7       11.7       11.7       11.7       11.7       11.7       11.7        0.0        0.0        0.0        0.0        0.0        0.0        0.0        0.0        0.0        0.0        0.0        0.0      9.6      15.8      18.1      26.4      34.7    391.85
     4     7  2011     4     1     259.1     3.9      0.0    0.0    3.9    0.0      0.0      0.0   -9.90     16.6      6.7     41      0.0      0.0   100     16.6     6.7      41     16.0    0.30     -9     -9     -9      0     -9     0.0     0.0      0    -9.00      0.0      0.0      0.0   100     0.0     0.000    -9.9    0.000    0.000      -9        0.00    0.000    0.000     259.1    259.1    0.30    25.1     125.1      34.6      30.7      21.9      15.5       6.9    0.000     0.000     0.000     0.000     0.000    0.30     0.00    0.00      0   -9.90   -9.00        2.0       11.7       11.7       11.7       11.7       11.7       11.7       11.7       11.7       11.7       11.7       11.7        0.0        0.0        0.0        0.0        0.0        0.0        0.0        0.0        0.0        0.0        0.0        0.0      3.9      15.1      18.1      25.8      33.6    391.85
     5     7  2011     5     1     258.3     4.8      0.0    0.0    4.8    0.0      0.0      0.0   -9.90     16.2      5.6     35      0.0      0.0   100     16.2     5.6      35     17.6    0.32     -9     -9     -9      0     -9     0.0     0.0      0    -9.00      0.0      0.0      0.0   100     0.0     0.000    -9.9    0.000    0.000      -9        0.00    0.000    0.000     258.3    258.3    0.32    26.6     133.5      36.9      32.8      23.2      16.5       7.4    0.000     0.000     0.000     0.000     0.000    0.32     0.00    0.00      0   -9.90   -9.00        1.2       11.7       11.7       11.7       11.7       11.7       11.7       11.7       11.7       11.7       11.7       11.7        0.0        0.0        0.0        0.0        0.0        0.0        0.0        0.0        0.0        0.0        0.0        0.0      4.8      14.7      21.2      27.9      34.6    391.85
     6     7  2011     6     1     257.4     4.2      0.0    0.0    4.2    0.0      0.0      0.0   -9.90     16.2      5.1     32      0.0      0.0   100     16.2     5.1      32     16.5    0.36     -9     -9     -9      0     -9     0.0     0.0      0    -9.00      0.0      0.0      0.0   100     0.0     0.000    -9.9    0.000    0.000      -9        0.00    0.000    0.000     257.4    257.4    0.36    30.4     150.6      41.6      37.0      26.2      18.7       8.4    0.000     0.000     0.000     0.000     0.000    0.36     0.00    0.00      0   -9.90   -9.00        1.2       11.1       11.7       11.7       11.7       11.7       11.7       11.7       11.7       11.7       11.7       11.7        0.0        0.0        0.0        0.0        0.0        0.0        0.0        0.0        0.0        0.0        0.0        0.0      4.2      14.7      19.0      26.3      33.5    391.85
     7     7  2011     7     2     260.2     2.9      4.0    0.0    2.9    0.0      0.0      0.0   -9.90     16.5      3.9     24      0.1      0.1   100     16.6     4.1      24     16.9    0.40     -9      0      0      0      0     0.4     0.4      0     0.01      0.1      0.1      0.1   100    34.3     0.003    -9.9    0.000    0.000     100        0.00    0.000    0.000     260.2    260.2    0.40    37.7     166.4      46.0      46.0      29.3      29.3       9.3    0.000     0.000     0.000     0.000     0.000    0.40     0.00    0.00      0   -9.90   -9.00        9.6        9.6        9.6       11.7       11.7       11.7       11.7       11.7       11.7       11.7       11.7       11.7        0.0        0.0        0.0        0.0        0.0        0.0        0.0        0.0        0.0        0.0        0.0        0.0      2.9      15.1      19.9      27.2      34.5    391.85
     8     7  2011     8     2     259.3     0.2      4.7    0.0    0.2    0.0      0.0      0.0   -9.90     15.9      5.7     36      0.1      0.1   100     16.1     5.8      36     17.7    0.43     -9      0      0      0      0     0.5     0.5      0     0.01      0.1      0.1      0.1   100    34.3     0.006    -9.9    0.000    0.000     100        0.00    0.000    0.000     259.3    259.3    0.43    41.3     181.2      50.1      50.1      31.4      31.4      10.2    0.000     0.000     0.000     0.000     0.000    0.43     0.00    0.00      0   -9.90   -9.00        9.5        9.5        9.5       11.2       11.7       11.7       11.7       11.7       11.7       11.7       11.7       11.7        0.0        0.0        0.0        0.0        0.0        0.0        0.0        0.0        0.0        0.0        0.0        0.0      0.2      14.6      21.4      28.0      34.6    391.85
     9     7  2011     9     2     257.5     1.1      3.4    0.0    1.1    0.0      0.0      0.0   -9.90     14.5      6.1     42      0.1      0.1   100     14.7     6.2      43     18.0    0.47      5      0      0      0      0     0.6     0.6      0     0.01      0.1      0.1      0.1   100    34.3     0.010    -9.9    0.000    0.000     100        0.00    0.000    0.000     257.5    257.5    0.47    44.0     195.4      54.0      54.0      32.6      32.6      11.0    0.000     0.000     0.000     0.000     0.000    0.47     0.00    0.00      0   -9.90   -9.00        9.4        9.4        9.4       10.4       11.7       11.7       11.7       11.7       11.7       11.7       11.7       11.7        0.0        0.0        0.0        0.0        0.0        0.0        0.0        0.0        0.0        0.0        0.0        0.0      1.1      13.3      22.1      27.7      33.2    391.85
    10     7  2011    10     2     257.2     4.6      4.4    0.0    4.6    0.0      0.0      0.0   -9.90     16.0      9.0     57      0.2      0.2   100     16.1     9.2      57     17.3    0.50      0      0      0      0      0     0.7     0.7      0     0.01      0.2      0.2      0.2   100    34.3     0.014    -9.9    0.000    0.000      99        0.00    0.000    0.000     257.2    257.2    0.50    47.4     209.1      57.8      57.8      36.4      36.4      11.9    0.000     0.000     0.000     0.000     0.000    0.50     0.00    0.00      0   -9.90   -9.00        9.5        9.5        9.6        9.9       11.7       11.7       11.7       11.7       11.7       11.7       11.7       11.7        0.0        0.0        0.0        0.0        0.0        0.0        0.0        0.0        0.0        0.0        0.0        0.0      4.6      14.7      20.5      27.4      34.2    391.85
    11     7  2011    11     2     256.6     3.1      4.4    0.0    3.1    0.0      0.0      0.0   -9.90     15.5      8.0     51      0.2      0.2   100     15.7     8.2      52     16.9    0.53      0      0      0      0      0     0.8     0.8      0     0.01      0.2      0.2      0.2   100    34.3     0.019    -9.9    0.000    0.000      99        0.00    0.000    0.000     256.6    256.6    0.53    49.9     222.3      61.4      61.4      38.2      38.2      12.6    0.000     0.000     0.000     0.000     0.000    0.53     0.00    0.00      0   -9.90   -9.00        9.5        9.5        9.5        9.6       11.7       11.7       11.7       11.7       11.7       11.7       11.7       11.7        0.0        0.0        0.0        0.0        0.0        0.0        0.0        0.0        0.0        0.0        0.0        0.0      3.1      14.3      19.9      26.6      33.3    391.85
    12     7  2011    12     2     257.0     2.1      6.1    0.0    2.1    0.0      0.0      0.0   -9.90     16.6      7.6     46      0.3      0.3   100     16.9     7.8      46     17.4    0.56      0      0      0      0      0     1.0     1.0      0     0.02      0.3      0.3      0.3   100    34.3     0.025    -9.9    0.000    0.000      99        0.00    0.000    0.000     257.0    257.0    0.56    53.5     235.2      65.0      65.0      41.7      41.7      13.4    0.000     0.000     0.000     0.000     0.000    0.56     0.00    0.00      0   -9.90   -9.00        9.6        9.6        9.6        9.6       11.6       11.7       11.7       11.7       11.7       11.7       11.7       11.7        0.0        0.0        0.0        0.0        0.0        0.0        0.0        0.0        0.0        0.0        0.0        0.0      2.1      15.3      20.8      28.1      35.3    391.85
    13     7  2011    13     2     256.2     2.0      4.9    0.0    2.0    0.0      0.0      0.0   -9.90     16.5      7.4     45      0.3      0.3   100     16.9     7.7      46     17.0    0.59      0      0      0      0      0     1.2     1.2      0     0.02      0.3      0.3      0.3   100    34.3     0.032    -9.9    0.000    0.000      99        0.00    0.000    0.000     256.2    256.2    0.59    56.7     247.7      68.4      68.4      43.9      43.9      14.1    0.000     0.000     0.000     0.000     0.000    0.59     0.00    0.00      0   -9.90   -9.00        9.6        9.6        9.6        9.6       11.1       11.7       11.7       11.7       11.7       11.7       11.7       11.7        0.0        0.0        0.0        0.0        0.0        0.0        0.0        0.0        0.0        0.0        0.0        0.0      2.0      15.3      20.0      27.5      34.9    391.85
    14     7  2011    14     2     255.7     9.7      0.0    0.0    9.7    0.0      0.0      0.0   -9.90     15.4      9.8     64      0.3      0.3   100     15.7    10.2      65     16.6    0.62      0      0      0      0      0     1.4     1.4      0     0.02      0.3      0.3      0.3   100    34.3     0.041    -9.9    0.000    0.000      99        0.00    0.000    0.000     255.7    255.7    0.62    59.5     259.9      71.8      71.8      44.8      44.8      14.8    0.000     0.000     0.000     0.000     0.000    0.62     0.00    0.00      0   -9.90   -9.00        9.1        9.6        9.6        9.6       11.1       11.7       11.7       11.7       11.7       11.7       11.7       11.7        0.0        0.0        0.0        0.0        0.0        0.0        0.0        0.0        0.0        0.0        0.0        0.0      9.7      14.3      19.2      26.1      33.0    391.85
    15     7  2011    15     2     253.5     3.4      2.8    0.0    3.4    0.0      0.0      0.0   -9.90     14.4      8.0     56      0.4      0.4   100     14.8     8.4      57     17.8    0.65      0      0      0      0      0     1.6     1.6      0     0.03      0.4      0.4      0.4   100    34.3     0.050    -9.9    0.000    0.000      99        0.00    0.000    0.000     253.5    253.5    0.65    61.0     271.9      75.1      75.1      45.7      45.7      15.6    0.000     0.000     0.000     0.000     0.000    0.65     0.00    0.00      0   -9.90   -9.00        9.4        9.4        9.4        9.4       10.0       11.7       11.7       11.7       11.7       11.7       11.7       11.7        0.0        0.0        0.0        0.0        0.0        0.0        0.0        0.0        0.0        0.0        0.0        0.0      3.4      13.5      21.6      27.4      33.1    391.85
    16     7  2011    16     2     254.4    11.3      0.0    0.0   11.3    0.0      0.0      0.0   -9.90     15.5      9.9     64      0.5      0.5   100     16.0    10.4      65     18.0    0.67      0      0      0      0      0     1.9     1.9      0     0.03      0.5      0.5      0.5   100    34.3     0.062    -9.9    0.000    0.000      99        0.00    0.000    0.000     254.4    254.4    0.67    64.6     283.6      78.3      78.3      49.2      49.2      16.2    0.000     0.000     0.000     0.000     0.000    0.67     0.00    0.00      0   -9.90   -9.00       10.3        9.4        9.4        9.4       10.0       11.7       11.7       11.7       11.7       11.7       11.7       11.7        0.0        0.0        0.0        0.0        0.0        0.0        0.0        0.0        0.0        0.0        0.0        0.0     11.3      14.5      22.0      28.4      34.9    391.85
    17     7  2011    17     2     254.3     2.9      5.8    0.0    2.9    0.0      0.0      0.0   -9.90     16.6      8.3     50      0.6      0.6   100     17.2     8.9      52     16.2    0.70      0      0      0      0      0     2.2     2.2      0     0.04      0.6      0.6      0.6   100    34.3     0.076    -9.9    0.000    0.000      99        0.00    0.000    0.000     254.3    254.3    0.70    67.2     295.2      81.5      81.5      52.9      52.9      16.9    0.000     0.000     0.000     0.000     0.000    0.70     0.00    0.00      0   -9.90   -9.00        9.6        9.6        9.7        9.7        9.7       11.7       11.7       11.7       11.7       11.7       11.7       11.7        0.0        0.0        0.0        0.0        0.0        0.0        0.0        0.0        0.0        0.0        0.0        0.0      2.9      15.7      18.4      26.5      34.6    391.85
    18     7  2011    18     2     252.6     4.5      3.3    0.0    4.5    0.0      0.0      0.0   -9.90     15.0      8.8     59      0.7      0.7   100     15.6     9.5      61     17.8    0.73      0      0      0      0      0     2.7     2.7      0     0.05      0.7      0.7      0.7   100    34.3     0.092    -9.9    0.000    0.000      99        0.00    0.000    0.000     252.6    252.6    0.73    69.2     306.5      84.6      84.6      52.7      52.7      17.6    0.000     0.000     0.000     0.000     0.000    0.73     0.00    0.00      0   -9.90   -9.00        9.5        9.5        9.5        9.5        9.5       11.4       11.7       11.7       11.7       11.7       11.7       11.7        0.0        0.0        0.0        0.0        0.0        0.0        0.0        0.0        0.0        0.0        0.0        0.0      4.5      14.2      21.5      27.8      34.2    391.85
    19     7  2011    19     2     251.2     4.5      3.6    0.0    4.5    0.0      0.0      0.0   -9.90     14.3      8.7     61      0.8      0.8   100     15.1     9.5      63     18.0    0.75      0      0      0      0      0     3.1     3.1      0     0.06      0.8      0.8      0.8   100    34.3     0.111    -9.9    0.000    0.000      99        0.00    0.000    0.000     251.2    251.2    0.75    71.6     317.7      87.7      87.7      53.9      53.9      18.3    0.000     0.000     0.000     0.000     0.000    0.75     0.00    0.00      0   -9.90   -9.00        9.4        9.4        9.5        9.5        9.5       10.9       11.7       11.7       11.7       11.7       11.7       11.7        0.0        0.0        0.0        0.0        0.0        0.0        0.0        0.0        0.0        0.0        0.0        0.0      4.5      13.8      22.0      27.9      33.8    391.85
    20     7  2011    20     2     251.0     1.4      6.1    0.0    1.4    0.0      0.0      0.0   -9.90     15.3      6.7     44      1.0      1.0   100     16.3     7.7      47     17.0    0.78      4      0      0      0      0     3.7     3.7      0     0.06      1.0      1.0      1.0   100    34.3     0.133    -9.9    0.000    0.000      99        0.00    0.000    0.000     251.0    251.0    0.78    74.8     328.7      90.8      90.8      57.6      57.6      18.9    0.000     0.000     0.000     0.000     0.000    0.78     0.00    0.00      0   -9.90   -9.00        9.5        9.5        9.6        9.6        9.6       10.3       11.7       11.7       11.7       11.7       11.7       11.7        0.0        0.0        0.0        0.0        0.0        0.0        0.0        0.0        0.0        0.0        0.0        0.0      1.4      14.8      20.1      27.2      34.2    391.85
    21     7  2011    21     2     250.3     9.1      1.0    0.0    9.1    0.0      0.0      0.0   -9.90     15.3      9.6     63      1.1      1.1   100     16.5    10.8      65     17.5    0.81      0      0      0      0      0     4.3     4.3      0     0.08      1.1      1.1      1.1   100    34.3     0.159    -9.9    0.000    0.000      99        0.00    0.000    0.000     250.3    250.3    0.81    77.2     339.6      93.8      93.8      59.8      59.8      19.5    0.000     0.000     0.000     0.000     0.000    0.81     0.00    0.00      0   -9.90   -9.00        9.5        9.5        9.6        9.6        9.6        9.9       11.7       11.7       11.7       11.7       11.7       11.7        0.0        0.0        0.0        0.0        0.0        0.0        0.0        0.0        0.0        0.0        0.0        0.0      9.1      15.0      21.0      28.0      35.0    391.85
    22     7  2011    22     2     248.7     7.3      1.3    0.0    7.3    0.0      0.0      0.0   -9.90     13.8      9.1     66      1.2      1.2   100     15.0    10.3      69     16.5    0.83      0      0      0      0      0     5.1     5.1      0     0.09      1.2      1.2      1.2   100    34.3     0.189    -9.9    0.000    0.000      99        0.00    0.000    0.000     248.7    248.7    0.83    78.3     350.3      96.7      96.7      59.3      59.3      20.2    0.000     0.000     0.000     0.000     0.000    0.83     0.00    0.00      0   -9.90   -9.00        9.4        9.4        9.5        9.5        9.5        9.6       11.7       11.7       11.7       11.7       11.7       11.7        0.0        0.0        0.0        0.0        0.0        0.0        0.0        0.0        0.0        0.0        0.0        0.0      7.3      13.7      19.0      25.5      32.0    391.85
    23     7  2011    23     2     248.8     4.2      5.7    0.0    4.2    0.0      0.0      0.0   -9.90     13.9      8.4     60      1.5      1.5   100     15.4     9.8      64     17.0    0.86      0      0      0      0      0     6.0     6.0      0     0.10      1.5      1.5      1.5   100    34.3     0.225    -9.9    0.000    0.000      99        0.00    0.000    0.000     248.8    248.8    0.86    80.8     360.9      99.7      99.7      61.8      61.8      20.8    0.000     0.000     0.000     0.000     0.000    0.86     0.00    0.00      0   -9.90   -9.00        9.4        9.4        9.5        9.5        9.5        9.5       11.7       11.7       11.7       11.7       11.7       11.7        0.0        0.0        0.0        0.0        0.0        0.0        0.0        0.0        0.0        0.0        0.0        0.0      4.2      14.1      20.0      26.6      33.1    391.85
    24     7  2011    24     2     248.2     5.1      4.3    0.0    5.1    0.0      0.0      0.0   -9.90     13.2      8.3     63      1.7      1.7   100     14.8    10.0      67     17.5    0.88      0      0      0      0      0     7.1     7.1      0     0.12      1.7      1.7      1.7   100    34.3     0.267    -9.9    0.000    0.000      99        0.00    0.000    0.000     248.2    248.2    0.88    82.6     371.4     102.5     102.5      62.6      62.6      21.4    0.000     0.000     0.000     0.000     0.000    0.88     0.00    0.00      0   -9.90   -9.00        9.4        9.4        9.4        9.4        9.4        9.4       11.7       11.7       11.7       11.7       11.7       11.7        0.0        0.0        0.0        0.0        0.0        0.0        0.0        0.0        0.0        0.0        0.0        0.0      5.1      13.6      20.9      26.9      32.9    391.85
    25     7  2011    25     2     249.6     7.2      5.4    0.0    7.2    0.0      0.0      0.0   -9.90     14.4      9.0     62      2.2      2.2   100     16.6    11.1      67     16.8    0.91      0      0      0      0      0     8.4     8.4      0     0.14      2.2      2.2      2.2   100    34.3     0.316    -9.9    0.000    0.000      99        0.00    0.000    0.000     249.6    249.6    0.91    86.6     381.7     105.4     105.4      67.5      67.5      22.0    0.000     0.000     0.000     0.000     0.000    0.91     0.00    0.00      0   -9.90   -9.00        9.6        9.6        9.6        9.6        9.6        9.6       11.6       11.7       11.7       11.7       11.7       11.7        0.0        0.0        0.0        0.0        0.0        0.0        0.0        0.0        0.0        0.0        0.0        0.0      7.2      15.2      19.6      27.1      34.5    391.85
    26     7  2011    26     2     249.8     5.7      6.1    0.0    5.7    0.0      0.0      0.0   -9.90     14.7      9.0     61      2.7      2.7   100     17.4    11.6      67     17.1    0.93      0      0      0      0      0     9.9     9.9      0     0.17      2.7      2.7      2.7   100    34.3     0.373    -9.9    0.000    0.000      99        0.00    0.000    0.000     249.8    249.8    0.93    90.0     392.0     108.2     108.2      70.8      70.8      22.6    0.000     0.000     0.000     0.000     0.000    0.93     0.00    0.00      0   -9.90   -9.00        9.6        9.6        9.7        9.7        9.7        9.7       11.4       11.7       11.7       11.7       11.7       11.7        0.0        0.0        0.0        0.0        0.0        0.0        0.0        0.0        0.0        0.0        0.0        0.0      5.7      15.9      20.2      28.0      35.9    391.85
    27     7  2011    27     2     248.8    10.3      1.3    0.0   10.3    0.0      0.0      0.0   -9.90     14.2      9.4     66      3.1      3.1   100     17.3    12.5      72     16.6    0.95      0      0      0      0      0    11.6    11.6      0     0.20      3.1      3.1      3.1   100    34.3     0.440    -9.9    0.000    0.000      99        0.00    0.000    0.000     248.8    248.8    0.95    92.5     402.2     111.0     111.0      72.6      72.6      23.2    0.000     0.000     0.000     0.000     0.000    0.95     0.00    0.00      0   -9.90   -9.00        9.6        9.6        9.7        9.7        9.7        9.7       10.9       11.7       11.7       11.7       11.7       11.7        0.0        0.0        0.0        0.0        0.0        0.0        0.0        0.0        0.0        0.0        0.0        0.0     10.3      15.9      19.2      27.2      35.3    391.85
    28     7  2011    28     2     245.4     6.6      1.3    0.0    6.6    0.0      0.0      0.0   -9.90     11.6      8.3     71      3.1      3.1   100     14.7    11.3      77     16.8    0.98      0      0      0      0      0    13.7    13.7      0     0.23      3.1      3.1      3.1   100    34.3     0.518    -9.9    0.000    0.000      99        0.00    0.000    0.000     245.4    245.4    0.98    92.3     412.2     113.8     113.8      69.4      69.4      23.8    0.000     0.000     0.000     0.000     0.000    0.98     0.00    0.00      0   -9.90   -9.00        9.4        9.4        9.4        9.4        9.4        9.4       10.3       11.7       11.7       11.7       11.7       11.7        0.0        0.0        0.0        0.0        0.0        0.0        0.0        0.0        0.0        0.0        0.0        0.0      6.6      13.5      19.7      25.9      32.1    391.85
    29     7  2011    29     2     246.9    11.4      3.5    0.0   11.3    0.0      0.0      0.0   -9.90     13.0      9.1     71      4.2      4.2   100     17.1    13.3      78     16.7    1.00      0      0      0      0      0    16.2    16.2      0     0.26      4.2      4.2      4.2   100    34.3     0.609    -9.9    0.000    0.000      99        0.00    0.000    0.000     246.9    246.9    1.00    96.6     422.2     116.6     116.6      76.0      76.0      24.4    0.000     0.000     0.000     0.000     0.000    1.00     0.00    0.00      0   -9.90   -9.00        9.6        9.6        9.7        9.7        9.7        9.7       10.0       11.7       11.7       11.7       11.7       11.7        0.0        0.0        0.0        0.0        0.0        0.0        0.0        0.0        0.0        0.0        0.0        0.0     11.4      15.8      19.5      27.4      35.3    391.85
    30     7  2011    30     2     245.5     4.9      6.2    0.0    4.9    0.0      0.0      0.0   -9.90     11.5      7.9     68      4.6      4.6   100     16.1    12.4      77     16.7    1.02      0      0      0      0      0    19.1    19.1      0     0.31      4.6      4.6      4.6   100    34.3     0.714    -9.9    0.000    0.000      99        0.00    0.000    0.000     245.5    245.5    1.02    97.7     432.0     119.3     119.3      75.8      75.8      25.0    0.000     0.000     0.000     0.000     0.000    1.02     0.00    0.00      0   -9.90   -9.00        9.5        9.5        9.6        9.6        9.6        9.6        9.7       11.7       11.7       11.7       11.7       11.7        0.0        0.0        0.0        0.0        0.0        0.0        0.0        0.0        0.0        0.0        0.0        0.0      4.9      14.9      19.5      26.7      34.0    391.85
    31     7  2011    31     2     245.2     7.8      5.2    0.0    7.8    0.0      0.0      0.0   -9.90     10.7      8.1     76      5.2      5.2   100     16.0    13.4      84     17.1    1.05      0      0      0      0      0    22.5    22.5      0     0.35      5.2      5.2      5.2   100    34.3     0.836    -9.9    0.000    0.000      99        0.00    0.000    0.000     245.2    245.2    1.05    99.7     441.8     122.0     122.0      77.3      77.3      25.6    0.000     0.000     0.000     0.000     0.000    1.05     0.00    0.00      0   -9.90   -9.00        9.5        9.5        9.6        9.6        9.6        9.6        9.6       11.7       11.7       11.7       11.7       11.7        0.0        0.0        0.0        0.0        0.0        0.0        0.0        0.0        0.0        0.0        0.0        0.0      7.8      14.8      20.3      27.3      34.3    391.85
     1     8  2011    32     2     246.0     6.6      8.2    0.0    6.6    0.0      0.0      0.0   -9.90     10.4      7.7     74      6.3      6.3   100     16.7    14.1      84     16.7    1.07      0      0      0      0      0    26.5    26.5      0     0.41      6.3      6.3      6.3   100    34.3     0.976    -9.9    0.000    0.000      99        0.00    0.000    0.000     246.0    246.0    1.07   102.7     451.5     124.7     124.7      80.7      80.7      26.1    0.000     0.000     0.000     0.000     0.000    1.07     0.00    0.00      0   -9.90   -9.00        9.6        9.6        9.6        9.6        9.6        9.6        9.6       11.7       11.7       11.7       11.7       11.7        0.0        0.0        0.0        0.0        0.0        0.0        0.0        0.0        0.0        0.0        0.0        0.0      6.6      15.5      19.4      27.2      34.9    391.85
     2     8  2011    33     2     246.1    14.6      0.0    0.0   14.4    0.2      0.0      0.0   -9.90      8.7      7.5     86      6.8      6.8   100     15.5    14.2      92     17.2    1.09      0      0      0      0      0    31.3    31.3      0     0.47      6.8      6.8      6.8   100    34.3     1.137    -9.9    0.000    0.000      99        0.00    0.000    0.000     246.1    246.1    1.09   105.0     461.2     127.3     127.3      79.8      79.8      26.7    0.000     0.000     0.000     0.000     0.000    1.09     0.00    0.00      0   -9.90   -9.00       13.8        6.9        9.6        9.6        9.6        9.6        9.6       11.7       11.7       11.7       11.7       11.7        0.0        0.0        0.0        0.0        0.0        0.0        0.0        0.0        0.0        0.0        0.0        0.0     14.6      14.4      20.4      27.1      33.8    391.85
     3     8  2011    34     2     246.3     7.5      8.5    0.0    7.5    0.0      0.0      0.0   -9.90      8.6      7.2     84      8.6      8.6   100     17.2    15.8      92     17.3    1.12      0      0      0      0      0    36.9    36.9      0     0.54      8.6      8.6      8.6   100    34.3     1.321    -9.9    0.000    0.000      99        0.00    0.000    0.000     246.3    246.3    1.12   108.0     470.7     130.0     130.0      85.4      85.4      27.3    0.000     0.000     0.000     0.000     0.000    1.12     0.00    0.00      0   -9.90   -9.00        9.7        9.7        9.7        9.7        9.7        9.7        9.7       11.5       11.7       11.7       11.7       11.7        0.0        0.0        0.0        0.0        0.0        0.0        0.0        0.0        0.0        0.0        0.0        0.0      7.5      16.1      20.6      28.4      36.3    391.85
     4     8  2011    35     2     243.3     1.2      8.7    0.0    1.2    0.0      0.0      0.0   -9.90      6.5      4.3     67      8.6      8.6   100     15.1    12.9      86     16.9    1.14      4      0      0      0      0    43.3    43.3      0     0.61      8.6      8.6      8.6   100    34.3     1.529    -9.9    0.000    0.000      99        0.00    0.000    0.000     243.3    243.3    1.14   108.2     480.2     132.6     132.6      82.5      82.5      27.8    0.000     0.000     0.000     0.000     0.000    1.14     0.00    0.00      0   -9.90   -9.00        9.5        9.5        9.5        9.5        9.5        9.5        9.5       11.2       11.7       11.7       11.7       11.7        0.0        0.0        0.0        0.0        0.0        0.0        0.0        0.0        0.0        0.0        0.0        0.0      1.2      14.1      19.9      26.5      33.1    391.85
     5     8  2011    36     2     243.7     3.3     12.7    0.0    3.3    0.0      0.0      0.0   -9.90      5.8      5.2     90     10.4     10.4   100     16.2    15.7      97     16.2    1.16      0      0      0      0      0    50.8    50.8      0     0.68     10.4     10.4     10.4   100    34.3     1.763    -9.9    0.000    0.000      99        0.00    0.000    0.000     243.7    243.7    1.16   111.7     489.6     135.2     135.2      86.9      86.9      28.4    0.000     0.000     0.000     0.000     0.000    1.16     0.00    0.00      0   -9.90   -9.00        9.6        9.6        9.6        9.6        9.6        9.6        9.6       10.7       11.7       11.7       11.7       11.7        0.0        0.0        0.0        0.0        0.0        0.0        0.0        0.0        0.0        0.0        0.0        0.0      3.3      15.3      18.4      26.3      34.1    391.85
     6     8  2011    37     2     242.0     4.9      8.9    0.0    4.9    0.0      0.0      0.0   -9.90      4.6      4.5     98     11.0     11.0   100     15.5    15.5     100     16.7    1.18      0      0      0      0      0    57.6    57.6      0     0.75     11.0     11.0     11.0   100    34.3     2.020    -9.9    0.000    0.000      99        0.00    0.000    0.000     242.0    242.0    1.18   112.9     499.0     137.8     137.8      87.0      87.0      28.9    0.000     0.000     0.000     0.000     0.000    1.18     0.00    0.00      0   -9.90   -9.00        9.5        9.5        9.6        9.6        9.6        9.6        9.6       10.2       11.7       11.7       11.7       11.7        0.0        0.0        0.0        0.0        0.0        0.0        0.0        0.0        0.0        0.0        0.0        0.0      4.9      14.7      19.5      26.6      33.7    391.85
     7     8  2011    38     2     240.4     5.0      8.1    0.0    5.0    0.0      0.0      0.0   -9.90      3.6      3.6    100     11.1     11.1   100     14.7    14.7     100     17.2    1.20      0      0      0      0      0    63.3    63.3      0     0.80     11.1     11.1     11.1   100    34.3     2.293    -9.9    0.000    0.000      99        0.00    0.000    0.000     240.4    240.4    1.20   113.9     508.3     140.3     140.3      86.8      86.8      29.5    0.000     0.000     0.000     0.000     0.000    1.20     0.00    0.00      0   -9.90   -9.00        9.4        9.4        9.5        9.5        9.5        9.5        9.5        9.8       11.7       11.7       11.7       11.7        0.0        0.0        0.0        0.0        0.0        0.0        0.0        0.0        0.0        0.0        0.0        0.0      5.0      13.9      20.4      26.7      33.1    391.85
     8     8  2011    39     2     240.8     8.2      7.6    0.0    8.2    0.0      0.0      0.0   -9.90      3.2      3.2    100     12.2     12.2   100     15.4    15.4     100     16.2    1.23      0      0      0      0      0    68.2    68.2      0     0.84     12.2     12.2     12.2   100    34.3     2.580    -9.9    0.000    0.000      99        0.00    0.000    0.000     240.8    240.8    1.23   116.6     517.5     142.9     142.9      90.1      90.1      30.0    0.000     0.000     0.000     0.000     0.000    1.23     0.00    0.00      0   -9.90   -9.00        9.5        9.5        9.5        9.5        9.5        9.5        9.5        9.7       11.7       11.7       11.7       11.7        0.0        0.0        0.0        0.0        0.0        0.0        0.0        0.0        0.0        0.0        0.0        0.0      8.2      14.6      18.4      25.8      33.1    391.85
     9     8  2011    40     2     240.6     3.2     11.9    0.0    3.2    0.0      0.0      0.0   -9.90      2.7      2.7    100     12.7     12.7   100     15.3    15.3     100     16.5    1.25      0      0      0      0      0    72.3    72.3      0     0.87     12.7     12.7     12.7   100    34.3     2.879    -9.9    0.000    0.000      99        0.00    0.000    0.000     240.6    240.6    1.25   118.5     526.7     145.4     145.4      91.6      91.6      30.6    0.000     0.000     0.000     0.000     0.000    1.25     0.00    0.00      0   -9.90   -9.00        9.5        9.5        9.5        9.5        9.5        9.5        9.5        9.6       11.7       11.7       11.7       11.7        0.0        0.0        0.0        0.0        0.0        0.0        0.0        0.0        0.0        0.0        0.0        0.0      3.2      14.6      18.9      26.1      33.3    391.85
    10     8  2011    41     2     240.8     3.5     12.3    0.0    3.5    0.0      0.0      0.0   -9.90      2.3      2.3    100     13.3     13.3   100     15.5    15.5     100     16.3    1.27      0      0      0      0      0    75.8    75.8      0     0.90     13.3     13.3     13.3   100    34.3     3.187    -9.9    0.000    0.000      99        0.00    0.000    0.000     240.8    240.8    1.27   120.8     535.8     147.9     147.9      93.8      93.8      31.1    0.000     0.000     0.000     0.000     0.000    1.27     0.00    0.00      0   -9.90   -9.00        9.5        9.5        9.6        9.6        9.6        9.6        9.6        9.6       11.7       11.7       11.7       11.7        0.0        0.0        0.0        0.0        0.0        0.0        0.0        0.0        0.0        0.0        0.0        0.0      3.5      14.8      18.6      26.0      33.5    391.85
    11     8  2011    42     2     243.3     3.1     16.7    0.0    3.1    0.0      0.0      0.0   -9.90      2.2      2.2    100     15.2     15.2   100     17.4    17.4     100     16.9    1.29      0      0      0      0      0    78.8    78.8      0     0.92     15.2     15.2     15.2   100    34.3     3.502    -9.9    0.000    0.000      99        0.00    0.000    0.000     243.3    243.3    1.29   125.3     544.9     150.4     150.4     100.2     100.2      31.6    0.000     0.000     0.000     0.000     0.000    1.29     0.00    0.00      0   -9.90   -9.00        9.7        9.7        9.8        9.8        9.8        9.8        9.8        9.7       11.7       11.7       11.7       11.7        0.0        0.0        0.0        0.0        0.0        0.0        0.0        0.0        0.0        0.0        0.0        0.0      3.1      16.5      19.7      28.2      36.6    391.85
    12     8  2011    43     2     239.6     5.5      5.7    0.0    5.5    0.0      0.0      0.0   -9.90      1.6      1.6    100     13.2     13.2   100     14.8    14.8     100     16.7    1.31      0      0      0      0      0    81.3    81.3      0     0.94     13.2     13.2     13.2   100    34.3     3.823    -9.9    0.000    0.000      99        0.00    0.000    0.000     239.6    239.6    1.31   124.2     553.9     152.9     152.9      95.0      95.0      32.2    0.000     0.000     0.000     0.000     0.000    1.31     0.00    0.00      0   -9.90   -9.00        9.4        9.4        9.5        9.5        9.5        9.5        9.5        9.5       11.6       11.7       11.7       11.7        0.0        0.0        0.0        0.0        0.0        0.0        0.0        0.0        0.0        0.0        0.0        0.0      5.5      14.1      19.5      26.2      32.9    391.85
    13     8  2011    44     2     239.1     4.0     10.3    0.0    4.0    0.0      0.0      0.0   -9.90      1.4      1.4    100     13.5     13.5   100     14.8    14.8     100     17.1    1.33      0      0      0      0      0    83.4    83.4      0     0.95     13.5     13.5     13.5   100    34.3     4.150    -9.9    0.000    0.000      99        0.00    0.000    0.000     239.1    239.1    1.33   126.7     562.8     155.4     155.4      96.7      96.7      32.7    0.000     0.000     0.000     0.000     0.000    1.33     0.00    0.00      0   -9.90   -9.00        9.5        9.5        9.5        9.5        9.5        9.5        9.5        9.5       11.3       11.7       11.7       11.7        0.0        0.0        0.0        0.0        0.0        0.0        0.0        0.0        0.0        0.0        0.0        0.0      4.0      14.2      20.3      26.9      33.4    391.85
    14     8  2011    45     2     242.3    19.3      0.0    0.0   18.7    0.6      0.0      0.0   -9.90      1.2      1.2    100     14.3     14.3   100     15.5    15.5     100     17.1    1.35      0      0      0      0      0    85.2    85.2      0     0.97     14.3     14.3     14.3   100    34.3     4.481    -9.9    0.000    0.000      99        0.00    0.000    0.000     242.3    242.3    1.35   132.2     571.7     157.8     157.8     100.1     100.1      33.2    0.000     0.000     0.000     0.000     0.000    1.35     0.00    0.00      0   -9.90   -9.00       24.4        6.6        6.7        7.5        9.5        9.5        9.5        9.5       11.3       11.7       11.7       11.7        0.0        0.0        0.0        0.0        0.0        0.0        0.0        0.0        0.0        0.0        0.0        0.0     19.3      14.8      20.3      27.3      34.4    391.85
    15     8  2011    46     2     240.2     0.8     13.8    0.0    0.8    0.0      0.0      0.0   -9.90      1.1      1.1    100     15.5     15.5   100     16.6    16.6     100     17.2    1.37      0      0      0      0      0    86.7    86.7      0     0.98     15.5     15.5     15.5   100    34.3     4.816    -9.9    0.000    0.000      99        0.00    0.000    0.000     240.2    240.2    1.37   133.4     580.6     160.3     160.3     104.9     104.9      33.8    0.000     0.000     0.000     0.000     0.000    1.37     0.00    0.00      0   -9.90   -9.00        9.6        9.6        9.7        9.7        9.7        9.7        9.7        9.7       10.8       11.7       11.7       11.7        0.0        0.0        0.0        0.0        0.0        0.0        0.0        0.0        0.0        0.0        0.0        0.0      0.8      15.9      20.4      28.2      36.1    391.85
    16     8  2011    47     2     237.7     7.0      6.0    0.0    7.0    0.0      0.0      0.0   -9.90      0.9      0.9    100     14.7     14.7   100     15.6    15.6     100     17.2    1.40      0      0      0      0      0    88.0    88.0      0     0.98     14.7     14.7     14.7   100    34.3     5.153    -9.9    0.000    0.000      99        0.00    0.000    0.000     237.7    237.7    1.40   133.9     589.4     162.7     162.7     103.5     103.5      34.3    0.000     0.000     0.000     0.000     0.000    1.40     0.00    0.00      0   -9.90   -9.00        9.5        9.5        9.6        9.6        9.6        9.6        9.6        9.6       10.4       11.7       11.7       11.7        0.0        0.0        0.0        0.0        0.0        0.0        0.0        0.0        0.0        0.0        0.0        0.0      7.0      14.9      20.4      27.5      34.6    391.85
    17     8  2011    48     2     235.7     1.5     11.4    0.0    1.5    0.0      0.0      0.0   -9.90      0.8      0.8    100     14.1     14.1   100     14.9    14.9     100     17.2    1.42      3      0      0      0      0    89.1    89.1      0     0.99     14.1     14.1     14.1   100    34.3     5.494    -9.9    0.000    0.000      99        0.00    0.000    0.000     235.7    235.7    1.42   134.6     598.2     165.1     165.1     103.0     103.0      34.8    0.000     0.000     0.000     0.000     0.000    1.42     0.00    0.00      0   -9.90   -9.00        9.5        9.5        9.5        9.5        9.5        9.5        9.5        9.5       10.0       11.7       11.7       11.7        0.0        0.0        0.0        0.0        0.0        0.0        0.0        0.0        0.0        0.0        0.0        0.0      1.5      14.2      20.4      27.0      33.6    391.85
    18     8  2011    49     2     235.2     3.2     11.3    0.0    3.2    0.0      0.0      0.0   -9.90      0.7      0.7    100     14.3     14.3   100     15.0    15.0     100     17.4    1.44      0      0      0      0      0    90.0    90.0      0     1.00     14.3     14.3     14.3   100    34.3     5.836    -9.9    0.000    0.000      99        0.00    0.000    0.000     235.2    235.2    1.44   136.4     606.9     167.5     167.5     104.8     104.8      35.3    0.000     0.000     0.000     0.000     0.000    1.44     0.00    0.00      0   -9.90   -9.00        9.5        9.5        9.5        9.5        9.5        9.5        9.5        9.5        9.7       11.7       11.7       11.7        0.0        0.0        0.0        0.0        0.0        0.0        0.0        0.0        0.0        0.0        0.0        0.0      3.2      14.3      20.8      27.4      34.0    391.85
    19     8  2011    50     2     237.2     3.6     14.8    0.0    3.6    0.0      0.0      0.0   -9.90      0.7      0.7    100     15.8     15.8   100     16.5    16.5     100     16.4    1.46      0      0      0      0      0    90.8    90.8      0     1.00     15.8     15.8     15.8   100    34.3     6.180    -9.9    0.000    0.000      99        0.00    0.000    0.000     237.2    237.2    1.46   140.4     615.5     169.9     169.9     110.9     110.9      35.8    0.000     0.000     0.000     0.000     0.000    1.46     0.00    0.00      0   -9.90   -9.00        9.6        9.6        9.7        9.7        9.7        9.7        9.7        9.7        9.7       11.7       11.7       11.7        0.0        0.0        0.0        0.0        0.0        0.0        0.0        0.0        0.0        0.0        0.0        0.0      3.6      15.8      18.7      27.0      35.2    391.85
    20     8  2011    51     2     235.0     2.0     10.8    0.0    2.0    0.0      0.0      0.0   -9.90      0.5      0.5    100     14.5     14.5   100     15.0    15.0     100     16.1    1.48      0      0      0      0      0    91.5    91.5      0     1.01     14.5     14.5     14.5   100    34.3     6.526    -9.9    0.000    0.000      99        0.00    0.000    0.000     235.0    235.0    1.48   140.3     624.2     172.3     172.3     108.0     108.0      36.3    0.000     0.000     0.000     0.000     0.000    1.48     0.00    0.00      0   -9.90   -9.00        9.5        9.5        9.5        9.5        9.5        9.5        9.5        9.5        9.6       11.7       11.7       11.7        0.0        0.0        0.0        0.0        0.0        0.0        0.0        0.0        0.0        0.0        0.0        0.0      2.0      14.4      18.1      25.4      32.8    391.85
    21     8  2011    52     2     234.4     5.1      9.1    0.0    5.1    0.0      0.0      0.0   -9.90      0.5      0.5    100     14.3     14.3   100     14.7    14.7     100     16.9    1.50      0      0      0      0      0    92.0    92.0      0     1.01     14.3     14.3     14.3   100    34.3     6.873    -9.9    0.000    0.000      99        0.00    0.000    0.000     234.4    234.4    1.50   141.7     632.8     174.7     174.7     108.6     108.6      36.8    0.000     0.000     0.000     0.000     0.000    1.50     0.00    0.00      0   -9.90   -9.00        9.4        9.4        9.5        9.5        9.5        9.5        9.5        9.5        9.5       11.7       11.7       11.7        0.0        0.0        0.0        0.0        0.0        0.0        0.0        0.0        0.0        0.0        0.0        0.0      5.1      14.1      19.7      26.4      33.1    391.85
    22     8  2011    53     2     234.8    12.5      2.9    0.0   12.5    0.1      0.0      0.0   -9.90      0.4      0.4    100     14.5     14.5   100     15.0    15.0     100     17.0    1.52      0      0      0      0      0    92.5    92.5      0     1.01     14.5     14.5     14.5   100    34.3     7.221    -9.9    0.000    0.000      99        0.00    0.000    0.000     234.8    234.8    1.52   143.9     641.3     177.0     177.0     110.8     110.8      37.3    0.000     0.000     0.000     0.000     0.000    1.52     0.00    0.00      0   -9.90   -9.00        9.5        9.5        9.5        9.5        9.5        9.5        9.5        9.5        9.5       11.7       11.7       11.7        0.0        0.0        0.0        0.0        0.0        0.0        0.0        0.0        0.0        0.0        0.0        0.0     12.5      14.3      19.9      26.8      33.6    391.85
    23     8  2011    54     2     235.7     2.1     14.4    0.0    2.1    0.0      0.0      0.0   -9.90      0.4      0.4    100     15.2     15.2   100     15.6    15.6     100     16.7    1.54      0      0      0      0      0    92.9    92.9      0     1.02     15.2     15.2     15.2   100    34.3     7.570    -9.9    0.000    0.000      99        0.00    0.000    0.000     235.7    235.7    1.54   146.8     649.8     179.4     179.4     114.2     114.2      37.8    0.000     0.000     0.000     0.000     0.000    1.54     0.00    0.00      0   -9.90   -9.00        9.5        9.5        9.6        9.6        9.6        9.6        9.6        9.6        9.6       11.7       11.7       11.7        0.0        0.0        0.0        0.0        0.0        0.0        0.0        0.0        0.0        0.0        0.0        0.0      2.1      14.9      19.5      26.9      34.3    391.85
    24     8  2011    55     2     235.5     9.8      5.5    0.0    9.8    0.0      0.0      0.0   -9.90      0.4      0.4    100     15.2     15.2   100     15.5    15.5     100     17.2    1.56      0      0      0      0      0    93.2    93.2      0     1.02     15.2     15.2     15.2   100    34.3     7.920    -9.9    0.000    0.000      99        0.00    0.000    0.000     235.5    235.5    1.56   148.8     658.3     181.7     181.7     115.6     115.6      38.3    0.000     0.000     0.000     0.000     0.000    1.56     0.00    0.00      0   -9.90   -9.00        9.5        9.5        9.6        9.6        9.6        9.6        9.6        9.6        9.6       11.6       11.7       11.7        0.0        0.0        0.0        0.0        0.0        0.0        0.0        0.0        0.0        0.0        0.0        0.0      9.8      14.9      20.4      27.6      34.7    391.85
    25     8  2011    56     3     234.5     7.6      6.7    0.0    7.6    0.0      0.0      0.0   -9.90      0.3      0.3    100     15.0     15.0   100     15.3    15.3     100     15.9    1.58      0      0      0      0      0    93.5    93.5      0     1.02     15.0     15.0     15.0   100    34.3     8.270    -9.9    0.000    0.000      99        0.00    0.000    0.000     234.5    234.5    1.58   150.7     666.7     184.0     184.0     116.3     116.3      38.8    0.000     0.000     0.000     0.000     0.000    1.58     0.00    0.00      0   -9.90   -9.00        9.5        9.5        9.6        9.6        9.6        9.6        9.6        9.6        9.6       11.4       11.7       11.7        0.0        0.0        0.0        0.0        0.0        0.0        0.0        0.0        0.0        0.0        0.0        0.0      7.6      14.6      17.8      25.4      33.1    391.85
    26     8  2011    57     3     235.7     6.2     11.5    0.0    6.2    0.0      0.0      0.0   -9.90      0.3      0.3    100     16.2     16.2   100     16.5    16.5     100     16.5    1.60      0      0      0      0      0    93.7    93.7      0     1.02     16.2     16.2     16.2   100    34.3     8.621    -9.9    0.000    0.000      99        0.00    0.000    0.000     235.7    235.7    1.60   154.7     675.1     186.4     186.4     121.7     121.7      39.3    0.000     0.000     0.000     0.000     0.000    1.60     0.00    0.00      0   -9.90   -9.00        9.6        9.6        9.7        9.7        9.7        9.7        9.7        9.7        9.7       11.1       11.7       11.7        0.0        0.0        0.0        0.0        0.0        0.0        0.0        0.0        0.0        0.0        0.0        0.0      6.2      15.8      19.0      27.3      35.5    391.85
    27     8  2011    58     3     232.6     4.2      8.0    0.0    4.2    0.0      0.0      0.0   -9.90      0.3      0.3    100     14.9     14.9   100     15.2    15.2     100     17.0    1.62      0      0      0      0      0    93.9    93.9      0     1.02     14.9     14.9     14.9   100    34.3     8.972     1.5    0.136    0.151      99        0.02    0.000    0.000     232.6    232.6    1.62   154.6     683.5     188.7     188.7     118.9     118.9      39.8    0.000     0.000     0.000     0.000     0.000    1.62     0.00    0.00      0   -9.90   -9.00        9.5        9.5        9.5        9.5        9.5        9.5        9.5        9.5        9.5       10.7       11.7       11.7        0.0        0.0        0.0        0.0        0.0        0.0        0.0        0.0        0.0        0.0        0.0        0.0      4.2      14.6      20.1      27.1      34.2    391.85
    28     8  2011    59     3     230.1     3.3      8.5    0.0    3.3    0.0      0.0      0.0   -9.90      0.3      0.3    100     14.0     14.0   100     14.3    14.3     100     17.0    1.64      0      0      0      0      0    94.0    94.0      0     1.02     14.0     14.0     14.0   100    34.3     9.323     1.9    0.173    0.192      99        0.02    0.000    0.000     230.1    230.1    1.64   154.8     691.8     191.0     191.0     117.3     117.3      40.3    0.000     0.000     0.000     0.000     0.000    1.64     0.00    0.00      0   -9.90   -9.00        9.4        9.4        9.5        9.5        9.5        9.5        9.5        9.5        9.5       10.2       11.7       11.7        0.0        0.0        0.0        0.0        0.0        0.0        0.0        0.0        0.0        0.0        0.0        0.0      3.3      13.7      20.0      26.4      32.9    391.85
    29     8  2011    60     3     231.4     5.4     11.6    0.0    5.4    0.0      0.0      0.0   -9.90      0.2      0.2    100     15.4     15.4   100     15.6    15.6     100     17.0    1.66      0      0      0      0      0    95.2    95.2      0     1.03     15.4     15.4     15.4   100    34.3     9.678     2.3    0.219    0.243      99        0.03    0.000    0.000     231.4    231.4    1.66   158.6     700.1     193.3     193.3     123.1     123.1      40.8    0.000     0.000     0.000     0.000     0.000    1.66     0.00    0.00      0   -9.90   -9.00        9.5        9.5        9.6        9.6        9.6        9.6        9.6        9.6        9.6       10.0       11.7       11.7        0.0        0.0        0.0        0.0        0.0        0.0        0.0        0.0        0.0        0.0        0.0        0.0      5.4      14.9      20.1      27.4      34.8    391.85
    30     8  2011    61     3     232.6     3.7     14.1    0.0    3.7    0.0      0.0      0.0   -9.90      0.2      0.2    100     16.4     16.4   100     16.6    16.6     100     17.1    1.68     -9      0      0      0      0    95.3    95.3      0     1.03     16.4     16.4     16.4   100    34.3    10.032     2.8    0.277    0.308      99        0.04    0.000    0.000     232.6    232.6    1.68   161.9     708.4     195.5     195.5     127.9     127.9      41.3    0.000     0.000     0.000     0.000     0.000    1.68     0.00    0.00      0   -9.90   -9.00        9.6        9.6        9.7        9.7        9.7        9.7        9.7        9.7        9.7        9.8       11.7       11.7        0.0        0.0        0.0        0.0        0.0        0.0        0.0        0.0        0.0        0.0        0.0        0.0      3.7      15.9      20.1      28.2      36.2    391.85
    31     8  2011    62     3     228.6     4.2      6.1    0.0    4.2    0.0      0.0      0.0   -9.90      0.1      0.1    100     14.2     14.2   100     14.3    14.3     100     17.4    1.70     -9      0      0      0      0    95.4    95.4      0     1.03     14.2     14.2     14.2   100    34.3    10.386     3.4    0.349    0.388      99        0.05    0.000    0.000     228.6    228.6    1.70   160.0     716.6     197.8     197.8     121.7     121.7      41.8    0.000     0.000     0.000     0.000     0.000    1.70     0.00    0.00      0   -9.90   -9.00        9.4        9.4        9.5        9.5        9.5        9.5        9.5        9.5        9.5        9.6       11.7       11.7        0.0        0.0        0.0        0.0        0.0        0.0        0.0        0.0        0.0        0.0        0.0        0.0      4.2      13.8      20.9      27.2      33.5    391.85
     1     9  2011    63     3     230.3     3.4     13.8    0.0    3.4    0.0      0.0      0.0   -9.90      0.1      0.1    100     15.3     15.3   100     15.4    15.4     100     17.3    1.71     -9      0      0      0      0    95.5    95.5      0     1.03     15.3     15.3     15.3   100    34.3    10.739     4.1    0.438    0.487      99        0.06    0.000    0.000     230.3    230.3    1.71   163.6     724.8     200.1     200.1     127.2     127.2      42.3    0.000     0.000     0.000     0.000     0.000    1.71     0.00    0.00      0   -9.90   -9.00        9.5        9.5        9.6        9.6        9.6        9.6        9.6        9.6        9.6        9.6       11.7       11.7        0.0        0.0        0.0        0.0        0.0        0.0        0.0        0.0        0.0        0.0        0.0        0.0      3.4      14.8      20.6      27.8      35.0    391.85
     2     9  2011    64     3     227.2     2.3      8.3    0.0    2.3    0.0      0.0      0.0   -9.90      0.1      0.1    100     13.5     13.5   100     13.6    13.6     100     18.2    1.73     -9      0      0      0      0    95.6    95.6      0     1.03     13.5     13.5     13.5   100    34.3    11.091     4.9    0.547    0.608      99        0.07    0.000    0.000     227.2    227.2    1.73   162.4     732.9     202.3     202.3     122.4     122.4      42.7    0.000     0.000     0.000     0.000     0.000    1.73     0.00    0.00      0   -9.90   -9.00        9.3        9.3        9.4        9.4        9.4        9.4        9.4        9.4        9.4        9.4       11.7       11.7        0.0        0.0        0.0        0.0        0.0        0.0        0.0        0.0        0.0        0.0        0.0        0.0      2.3      13.2      22.3      28.0      33.6    391.85
     3     9  2011    65     3     228.9     2.3     13.9    0.0    2.3    0.0      0.0      0.0   -9.90      0.1      0.1    100     14.5     14.5   100     14.6    14.6     100     17.4    1.75     -9      0      0      0      0    95.6    95.6      0     1.02     14.5     14.5     14.5   100    34.3    11.442     5.9    0.681    0.756      99        0.08    0.000    0.000     228.9    228.9    1.75   165.9     741.1     204.6     204.6     127.3     127.3      43.2    0.000     0.000     0.000     0.000     0.000    1.75     0.00    0.00      0   -9.90   -9.00        9.4        9.4        9.5        9.5        9.5        9.5        9.5        9.5        9.5        9.5       11.7       11.7        0.0        0.0        0.0        0.0        0.0        0.0        0.0        0.0        0.0        0.0        0.0        0.0      2.3      14.1      20.9      27.5      34.1    391.85
     4     9  2011    66     3     230.8     4.2     13.3    0.0    4.2    0.0      0.0      0.0   -9.90      0.1      0.1    100     15.5     15.5   100     15.6    15.6     100     17.5    1.77     -9      0      0      0      0    95.7    95.7      0     1.02     15.5     15.5     15.5   100    34.3    11.793     7.1    0.841    0.934      99        0.10    0.000    0.000     230.8    230.8    1.77   169.6     749.2     206.8     206.8     132.5     132.5      43.7    0.000     0.000     0.000     0.000     0.000    1.77     0.00    0.00      0   -9.90   -9.00        9.6        9.6        9.6        9.6        9.6        9.6        9.6        9.6        9.6        9.6       11.7       11.7        0.0        0.0        0.0        0.0        0.0        0.0        0.0        0.0        0.0        0.0        0.0        0.0      4.2      15.1      21.1      28.4      35.7    391.85
     5     9  2011    67     3     229.6     0.6     13.0    0.0    0.6    0.0      0.0      0.0   -9.90      0.1      0.1    100     14.8     14.8   100     14.9    14.9     100     16.2    1.79     -9      0      0      0      0    95.7    95.7      0     1.02     14.8     14.8     14.8   100    34.3    12.142     8.5    1.033    1.147      99        0.12    0.000    0.000     229.6    229.6    1.79   170.2     757.2     209.0     209.0     131.4     131.4      44.2    0.000     0.000     0.000     0.000     0.000    1.79     0.00    0.00      0   -9.90   -9.00        9.5        9.5        9.5        9.5        9.5        9.5        9.5        9.5        9.5        9.5       11.7       11.7        0.0        0.0        0.0        0.0        0.0        0.0        0.0        0.0        0.0        0.0        0.0        0.0      0.6      14.5      18.5      26.0      33.5    391.85
     6     9  2011    68     3     229.0     3.5     10.6    0.0    3.5    0.0      0.0      0.0   -9.90      0.1      0.1    100     14.5     14.5   100     14.6    14.6     100     16.8    1.81     -9      0      0      0      0    95.8    95.8      0     1.02     14.5     14.5     14.5   100    34.3    12.491    10.0    1.253    1.392      99        0.15    0.000    0.000     229.0    229.0    1.81   171.9     765.3     211.2     211.2     132.2     132.2      44.6    0.000     0.000     0.000     0.000     0.000    1.81     0.00    0.00      0   -9.90   -9.00        9.5        9.5        9.5        9.5        9.5        9.5        9.5        9.5        9.5        9.5       11.6       11.7        0.0        0.0        0.0        0.0        0.0        0.0        0.0        0.0        0.0        0.0        0.0        0.0      3.5      14.3      19.7      26.8      33.9    391.85
     7     9  2011    69     4     229.0     4.3     10.6    0.0    4.3    0.0      0.0      0.0   -9.90      0.1      0.1    100     14.8     14.8   100     14.9    14.9     100     17.6    1.83     -9      0      0      0      0    95.8    95.8      0     1.01     14.8     14.8     14.8   100    34.3    12.839    11.6    1.484    1.648      99        0.17    0.000    0.000     229.0    229.0    1.83   174.6     773.3     213.5     213.5     134.7     134.7      45.1    0.000     0.000     0.000     0.000     0.000    1.83     0.00    0.00      0   -9.90   -9.00        9.5        9.5        9.5        9.5        9.5        9.5        9.5        9.5        9.5        9.5       11.4       11.7        0.0        0.0        0.0        0.0        0.0        0.0        0.0        0.0        0.0        0.0        0.0        0.0      4.3      14.6      21.2      28.2      35.2    391.85
     8     9  2011    70     4     226.3     5.4      5.8    0.0    5.4    0.0      0.0      0.0   -9.90      0.1      0.1    100     13.8     13.8   100     13.9    13.9     100     16.9    1.85     -9      0      0      0      0    95.8    95.8      0     1.01     13.8     13.8     13.8   100    34.3    13.186    13.1    1.725    1.917      99        0.20    0.000    0.000     226.3    226.3    1.85   174.8     781.3     215.7     215.7     132.5     132.5      45.6    0.000     0.000     0.000     0.000     0.000    1.85     0.00    0.00      0   -9.90   -9.00        9.4        9.4        9.5        9.5        9.5        9.5        9.5        9.5        9.5        9.5       11.0       11.7        0.0        0.0        0.0        0.0        0.0        0.0        0.0        0.0        0.0        0.0        0.0        0.0      5.4      13.7      19.7      26.3      33.0    391.85
     9     9  2011    71     4     228.5    11.7      6.1    0.0   11.7    0.0      0.0      0.0   -9.90      0.1      0.1    100     15.4     15.4   100     15.5    15.5     100     16.0    1.87     -9      0      0      0      0    95.9    95.9      0     1.01     15.4     15.4     15.4   100    34.3    13.532    14.6    1.977    2.196      99        0.22    0.000    0.000     228.5    228.5    1.87   179.8     789.2     217.9     217.9     140.3     140.3      46.1    0.000     0.000     0.000     0.000     0.000    1.87     0.00    0.00      0   -9.90   -9.00        9.6        9.6        9.6        9.6        9.6        9.6        9.6        9.6        9.6        9.6       10.6       11.7        0.0        0.0        0.0        0.0        0.0        0.0        0.0        0.0        0.0        0.0        0.0        0.0     11.7      15.3      18.0      26.3      34.7    391.85
    10     9  2011    72     4     227.5     8.8      5.7    0.0    8.8    0.0      0.0      0.0   -9.90      0.1      0.1    100     15.3     15.3   100     15.4    15.4     100     17.0    1.89     -9      0      0      0      0    95.9    95.9      0     1.01     15.3     15.3     15.3   100    34.3    13.877    16.1    2.239    2.488      99        0.25    0.000    0.000     227.5    227.5    1.89   181.3     797.2     220.0     220.0     141.4     141.4      46.5    0.000     0.000     0.000     0.000     0.000    1.89     0.00    0.00      0   -9.90   -9.00        9.6        9.6        9.6        9.6        9.6        9.6        9.6        9.6        9.6        9.6       10.3       11.7        0.0        0.0        0.0        0.0        0.0        0.0        0.0        0.0        0.0        0.0        0.0        0.0      8.8      15.2      20.0      27.8      35.6    391.85
    11     9  2011    73     4     225.4     7.7      4.8    0.0    7.7    0.0      0.0      0.0   -9.90      0.1      0.1    100     14.6     14.6   100     14.7    14.7     100     16.5    1.90     -9      0      0      0      0    95.9    95.9      0     1.00     14.6     14.6     14.6   100    34.3    14.221    17.7    2.511    2.790      99        0.27    0.000    0.000     225.4    225.4    1.90   181.5     805.1     222.2     222.2     139.9     139.9      47.0    0.000     0.000     0.000     0.000     0.000    1.90     0.00    0.00      0   -9.90   -9.00        9.5        9.5        9.5        9.5        9.5        9.5        9.5        9.5        9.5        9.5       10.0       11.7        0.0        0.0        0.0        0.0        0.0        0.0        0.0        0.0        0.0        0.0        0.0        0.0      7.7      14.5      19.1      26.6      34.1    391.85
    12     9  2011    74     4     221.3     5.8      3.0    0.0    5.8    0.0      0.0      0.0   -9.90      0.1      0.1    100     12.8     12.8   100     12.9    12.9     100     17.5    1.92     -9      0      0      0      0    95.9    95.9      0     1.00     12.8     12.8     12.8   100    34.3    14.564    19.2    2.794    3.105      99        0.30    0.000    0.000     221.3    221.3    1.92   179.7     813.0     224.4     224.4     134.2     134.2      47.5    0.000     0.000     0.000     0.000     0.000    1.92     0.00    0.00      0   -9.90   -9.00        9.3        9.3        9.4        9.4        9.4        9.4        9.4        9.4        9.4        9.4        9.7       11.7        0.0        0.0        0.0        0.0        0.0        0.0        0.0        0.0        0.0        0.0        0.0        0.0      5.8      12.8      21.1      26.8      32.6    391.85
    13     9  2011    75     4     222.5     5.6      9.1    0.0    5.6    0.0      0.0      0.0   -9.90      0.1      0.1    100     13.5     13.5   100     13.6    13.6     100     17.3    1.94     -9      0      0      0      0    95.9    95.9      0     1.00     13.5     13.5     13.5   100    34.3    14.907    20.7    3.087    3.430      99        0.33    0.000    0.000     222.5    222.5    1.94   182.8     820.8     226.6     226.6     138.7     138.7      47.9    0.000     0.000     0.000     0.000     0.000    1.94     0.00    0.00      0   -9.90   -9.00        9.4        9.4        9.4        9.4        9.4        9.4        9.4        9.4        9.4        9.4        9.5       11.7        0.0        0.0        0.0        0.0        0.0        0.0        0.0        0.0        0.0        0.0        0.0        0.0      5.6      13.6      20.6      27.1      33.5    391.85
    14     9  2011    76     4     223.0     6.2      8.1    0.0    6.2    0.0      0.0      0.0   -9.90      0.1      0.1    100     13.7     13.7   100     13.8    13.8     100     17.1    1.96     -9      0     -9      0      0    95.3    95.3      0     0.98     13.7     13.7     13.7   100    34.3    15.245    22.2    3.390    3.766     100        0.35    0.000    0.000     223.0    223.0    1.96   185.1     828.6     228.7     228.7     141.4     141.4      48.4    0.000     0.000     0.000     0.000     0.000    1.96     0.00    0.00      0   -9.90   -9.00        9.4        9.4        9.5        9.5        9.5        9.5        9.5        9.5        9.5        9.5        9.5       11.7        0.0        0.0        0.0        0.0        0.0        0.0        0.0        0.0        0.0        0.0        0.0        0.0      6.2      13.9      20.1      27.0      33.8    391.85
    15     9  2011    77     4     222.2    12.1      0.5    0.0   12.0    0.1      0.0      0.0   -9.90      0.2      0.2    100     13.1     13.1   100     13.3    13.3     100     17.5    1.98     -9      0     -9      0      0    94.6    94.6      0     0.97     13.1     13.1     13.1   100    34.3    15.577    23.8    3.701    4.113     100        0.38    0.000    0.000     222.2    222.2    1.98   186.1     836.4     230.9     230.9     141.2     141.2      48.8    0.000     0.000     0.000     0.000     0.000    1.98     0.00    0.00      0   -9.90   -9.00        9.4        9.4        9.4        9.4        9.4        9.4        9.4        9.4        9.4        9.4        9.5       11.7        0.0        0.0        0.0        0.0        0.0        0.0        0.0        0.0        0.0        0.0        0.0        0.0     12.1      13.5      21.1      27.4      33.8    391.85
    16     9  2011    78     4     223.0     1.7     12.8    0.0    1.7    0.0      0.0      0.0   -9.90      0.3      0.3    100     13.3     13.3   100     13.6    13.6     100     17.1    2.00     -9      0     -9      0      0    93.9    93.9      0     0.96     13.3     13.3     13.3   100    34.3    15.905    25.3    4.022    4.469     100        0.41    0.000    0.000     223.0    223.0    2.00   188.7     844.2     233.0     233.0     144.3     144.3      49.3    0.000     0.000     0.000     0.000     0.000    2.00     0.00    0.00      0   -9.90   -9.00        9.4        9.4        9.5        9.5        9.5        9.5        9.5        9.5        9.5        9.5        9.5       11.7        0.0        0.0        0.0        0.0        0.0        0.0        0.0        0.0        0.0        0.0        0.0        0.0      1.7      13.9      20.3      27.2      34.0    391.85
    17     9  2011    79     4     221.6     1.4     10.0    0.0    1.4    0.0      0.0      0.0   -9.90      0.3      0.3    100     12.5     12.5   100     12.8    12.8     100     16.8    2.01     -9      0     -9      0      0    93.0    93.0      0     0.94     12.5     12.5     12.5   100    34.3    16.227    26.8    4.351    4.834     100        0.43    0.000    0.000     221.6    221.6    2.01   189.0     852.0     235.2     235.2     142.7     142.7      49.8    0.000     0.000     0.000     0.000     0.000    2.01     0.00    0.00      0   -9.90   -9.00        9.4        9.4        9.4        9.4        9.4        9.4        9.4        9.4        9.4        9.4        9.4       11.7        0.0        0.0        0.0        0.0        0.0        0.0        0.0        0.0        0.0        0.0        0.0        0.0      1.4      13.3      19.5      26.1      32.6    391.85
    18     9  2011    80     4     221.1     8.3      3.7    0.0    8.3    0.0      0.0      0.0   -9.90      0.4      0.4    100     12.0     12.0   100     12.4    12.4     100     17.9    2.03     -9      0     -9      0      0    92.0    92.0      0     0.92     12.0     12.0     12.0   100    34.3    16.542    28.3    4.688    5.209     100        0.46    0.000    0.000     221.1    221.1    2.03   190.2     859.7     237.3     237.3     143.1     143.1      50.2    0.000     0.000     0.000     0.000     0.000    2.03     0.00    0.00      0   -9.90   -9.00        9.3        9.3        9.4        9.4        9.4        9.4        9.4        9.4        9.4        9.4        9.4       11.7        0.0        0.0        0.0        0.0        0.0        0.0        0.0        0.0        0.0        0.0        0.0        0.0      8.3      13.1      21.8      27.8      33.7    391.85
    19     9  2011    81     4     226.1     5.8     13.6    0.0    5.8    0.0      0.0      0.0   -9.90      0.6      0.6    100     13.8     13.8   100     14.4    14.4     100     16.8    2.05     -9      0     -9      0      0    90.9    90.9      0     0.90     13.8     13.8     13.8   100    34.3    16.851    29.9    5.032    5.592     100        0.49    0.000    0.000     226.1    226.1    2.05   197.0     867.4     239.4     239.4     154.5     154.5      50.7    0.000     0.000     0.000     0.000     0.000    2.05     0.00    0.00      0   -9.90   -9.00        9.6        9.6        9.6        9.6        9.6        9.6        9.6        9.6        9.6        9.6        9.6       11.7        0.0        0.0        0.0        0.0        0.0        0.0        0.0        0.0        0.0        0.0        0.0        0.0      5.8      15.4      19.6      27.8      36.0    391.85
    20     9  2011    82     4     223.1     6.3      3.8    0.0    6.3    0.0      0.0      0.0   -9.90      0.7      0.7    100     12.4     12.4   100     13.1    13.1     100     16.9    2.07     -9      0     -9      0      0    89.6    89.6      0     0.88     12.4     12.4     12.4   100    34.3    17.151    31.4    5.384    5.982     100        0.52    0.000    0.000     223.1    223.1    2.07   196.4     875.1     241.5     241.5     150.6     150.6      51.1    0.000     0.000     0.000     0.000     0.000    2.07     0.00    0.00      0   -9.90   -9.00        9.5        9.5        9.5        9.5        9.5        9.5        9.5        9.5        9.5        9.5        9.5       11.5        0.0        0.0        0.0        0.0        0.0        0.0        0.0        0.0        0.0        0.0        0.0        0.0      6.3      14.2      19.8      27.0      34.3    391.85
    21     9  2011    83     4     221.4     2.0      8.8    0.0    2.0    0.0      0.0      0.0   -9.90      0.8      0.8    100     11.7     11.7   100     12.5    12.5     100     16.8    2.09     -9      0     -9      0      0    88.2    88.2      0     0.85     11.7     11.7     11.7   100    34.3    17.444    32.9    5.742    6.380     100        0.54    0.000    0.000     221.4    221.4    2.09   197.5     882.8     243.7     243.7     150.1     150.1      51.6    0.000     0.000     0.000     0.000     0.000    2.09     0.00    0.00      0   -9.90   -9.00        9.4        9.4        9.5        9.5        9.5        9.5        9.5        9.5        9.5        9.5        9.5       11.2        0.0        0.0        0.0        0.0        0.0        0.0        0.0        0.0        0.0        0.0        0.0        0.0      2.0      13.8      19.7      26.7      33.7    391.85
    22     9  2011    84     4     222.0    11.9      1.5    0.0   11.9    0.1      0.0      0.0   -9.90      0.9      0.9    100     11.9     11.9   100     12.9    12.9     100     16.5    2.10     -9      0     -9      0      0    86.6    86.6      0     0.83     11.9     11.9     11.9   100    34.3    17.727    34.4    6.106    6.784     100        0.57    0.000    0.000     222.0    222.0    2.10   200.8     890.4     245.8     245.8     154.5     154.5      52.0    0.000     0.000     0.000     0.000     0.000    2.10     0.00    0.00      0   -9.90   -9.00        9.5        9.5        9.5        9.5        9.5        9.5        9.5        9.5        9.5        9.5        9.5       10.9        0.0        0.0        0.0        0.0        0.0        0.0        0.0        0.0        0.0        0.0        0.0        0.0     11.9      14.4      18.9      26.7      34.4    391.85
    23     9  2011    85     4     222.0     5.1      7.8    0.0    5.1    0.0      0.0      0.0   -9.90      1.1      1.1    100     11.8     11.8   100     12.9    12.9     100     16.7    2.12     -9      0     -9      0      0    84.8    84.8      0     0.80     11.8     11.8     11.8   100    34.3    17.999    36.0    6.474    7.193     100        0.60    0.000    0.000     222.0    222.0    2.12   203.4     898.0     247.9     247.9     157.6     157.6      52.5    0.000     0.000     0.000     0.000     0.000    2.12     0.00    0.00      0   -9.90   -9.00        9.5        9.5        9.6        9.6        9.6        9.6        9.6        9.6        9.6        9.6        9.6       10.5        0.0        0.0        0.0        0.0        0.0        0.0        0.0        0.0        0.0        0.0        0.0        0.0      5.1      14.9      19.4      27.4      35.4    391.85
    24     9  2011    86     4     218.9     3.3      5.4    0.0    3.3    0.0      0.0      0.0   -9.90      1.2      1.2    100     10.6     10.6   100     11.8    11.8     100     16.7    2.14     -9      0     -9      0      0    82.8    82.8      0     0.76     10.6     10.6     10.6   100    34.3    18.261    37.5    6.847    7.608     100        0.63    0.000    0.000     218.9    218.9    2.14   202.8     905.6     250.0     250.0     154.5     154.5      52.9    0.000     0.000     0.000     0.000     0.000    2.14     0.00    0.00      0   -9.90   -9.00        9.4        9.4        9.5        9.5        9.5        9.5        9.5        9.5        9.5        9.5        9.5       10.1        0.0        0.0        0.0        0.0        0.0        0.0        0.0        0.0        0.0        0.0        0.0        0.0      3.3      13.9      19.4      26.6      33.8    391.85
    25     9  2011    87     4     218.0     6.7      3.9    0.0    6.7    0.0      0.0      0.0   -9.90      1.4      1.4    100     10.0     10.0   100     11.4    11.4     100     17.6    2.16     -9      0     -9      0      0    80.5    80.5      0     0.73     10.0     10.0     10.0   100    34.3    18.510    39.0    7.223    8.025     100        0.65    0.000    0.000     218.0    218.0    2.16   204.1     913.2     252.1     252.1     155.4     155.4      53.4    0.000     0.000     0.000     0.000     0.000    2.16     0.00    0.00      0   -9.90   -9.00        9.4        9.4        9.5        9.5        9.5        9.5        9.5        9.5        9.5        9.5        9.5        9.8        0.0        0.0        0.0        0.0        0.0        0.0        0.0        0.0        0.0        0.0        0.0        0.0      6.7      13.8      21.3      28.0      34.8    391.85
[...]
    10    12  2015    -9     0     219.5     4.1      0.0    0.0    4.1    0.0      0.0      0.0   -9.90     11.7      5.4     46      0.0      0.0   100     11.7     5.4      46     16.8    2.28     -9     -9     -9      0     -9     0.0     0.0      0    -9.00      0.0      0.0      0.0   100    34.5    19.954    48.1    9.607   10.674      99        0.81    0.000    0.000     219.5    219.5    2.28   217.8     965.7     266.5     266.5     148.9     164.2      56.5    0.000     0.000     0.000     0.000     0.000    2.28     0.00    0.00      0   -9.90   -9.00        2.1       11.7       11.7       10.5        9.5        9.5        9.5        9.5        9.5        9.5        9.5        9.5        0.0        0.0        0.0        0.0        0.0        0.0        0.0        0.0        0.0        0.0        0.0        0.0      4.1      10.6      19.5      26.2      32.8    401.01
    11    12  2015    -9     0     218.4     1.9      0.0    0.0    1.9    0.0      0.0      0.0   -9.90     11.6      3.0     26      0.0      0.0   100     11.6     3.0      26     17.2    2.28     -9     -9     -9      0     -9     0.0     0.0      0    -9.00      0.0      0.0      0.0   100    34.5    19.954    48.1    9.607   10.674      99        0.81    0.000    0.000     218.4    218.4    2.28   216.7     965.7     266.5     266.5     148.7     164.2      56.5    0.000     0.000     0.000     0.000     0.000    2.28     0.00    0.00      0   -9.90   -9.00        1.2       11.6       11.7       10.5        9.5        9.5        9.5        9.5        9.5        9.5        9.5        9.5        0.0        0.0        0.0        0.0        0.0        0.0        0.0        0.0        0.0        0.0        0.0        0.0      1.9      10.6      20.4      26.8      33.2    401.01
    12    12  2015    -9     0     218.1     4.5      0.0    0.0    4.5    0.0      0.0      0.0   -9.90     11.5      4.7     41      0.0      0.0   100     11.5     4.7      41     17.4    2.28     -9     -9     -9      0     -9     0.0     0.0      0    -9.00      0.0      0.0      0.0   100    34.5    19.954    48.1    9.607   10.674      99        0.81    0.000    0.000     218.1    218.1    2.28   216.5     965.7     266.5     266.5     148.1     164.2      56.5    0.000     0.000     0.000     0.000     0.000    2.28     0.00    0.00      0   -9.90   -9.00        1.2       11.4       11.7       10.5        9.5        9.5        9.5        9.5        9.5        9.5        9.5        9.5        0.0        0.0        0.0        0.0        0.0        0.0        0.0        0.0        0.0        0.0        0.0        0.0      4.5      10.5      20.9      27.1      33.3    401.01
    13    12  2015    -9     0     218.8     6.0      0.0    0.0    6.0    0.0      0.0      0.0   -9.90     12.7      5.3     42      0.0      0.0   100     12.7     5.3      42     16.6    2.28     -9     -9     -9      0     -9     0.0     0.0      0    -9.00      0.0      0.0      0.0   100    34.5    19.954    48.1    9.607   10.674      99        0.81    0.000    0.000     218.8    218.8    2.28   217.2     965.7     266.5     266.5     153.6     164.2      56.5    0.000     0.000     0.000     0.000     0.000    2.28     0.00    0.00      0   -9.90   -9.00        1.9       11.4       11.7       10.5        9.5        9.5        9.5        9.5        9.5        9.5        9.5        9.5        0.0        0.0        0.0        0.0        0.0        0.0        0.0        0.0        0.0        0.0        0.0        0.0      6.0      11.6      19.1      26.8      34.5    401.01
    14    12  2015    -9     0     220.5     8.4      0.0    0.0    8.4    0.0      0.0      0.0   -9.90     11.4      6.7     59      0.0      0.0   100     11.4     6.7      59     17.4    2.28     -9     -9     -9      0     -9     0.0     0.0      0    -9.00      0.0      0.0      0.0   100    34.5    19.954    48.1    9.607   10.674      99        0.81    0.000    0.000     220.5    220.5    2.28   218.9     965.7     266.5     266.5     147.6     164.2      56.5    0.000     0.000     0.000     0.000     0.000    2.28     0.00    0.00      0   -9.90   -9.00        3.6       11.4       11.7       10.5        9.5        9.5        9.5        9.5        9.5        9.5        9.5        9.5        0.0        0.0        0.0        0.0        0.0        0.0        0.0        0.0        0.0        0.0        0.0        0.0      8.4      10.3      20.8      26.9      33.1    401.01
    15    12  2015    -9     0     219.1     4.0      0.0    0.0    4.0    0.0      0.0      0.0   -9.90     12.8      5.5     43      0.0      0.0   100     12.8     5.5      43     17.0    2.28     -9     -9     -9      0     -9     0.0     0.0      0    -9.00      0.0      0.0      0.0   100    34.5    19.954    48.1    9.607   10.674      99        0.81    0.000    0.000     219.1    219.1    2.28   217.4     965.7     266.5     266.5     153.7     164.2      56.5    0.000     0.000     0.000     0.000     0.000    2.28     0.00    0.00      0   -9.90   -9.00        2.1       11.4       11.7       10.5        9.5        9.5        9.5        9.5        9.5        9.5        9.5        9.5        0.0        0.0        0.0        0.0        0.0        0.0        0.0        0.0        0.0        0.0        0.0        0.0      4.0      11.6      20.0      27.5      35.0    401.01
    16    12  2015    -9     0     223.1    12.6      0.0    0.0   12.6    0.0      0.0      0.0   -9.90     12.9      8.6     67      0.0      0.0   100     12.9     8.6      67     16.4    2.28     -9     -9     -9      0     -9     0.0     0.0      0    -9.00      0.0      0.0      0.0   100    34.5    19.954    48.1    9.607   10.674      99        0.81    0.000    0.000     223.1    223.1    2.28   221.4     965.7     266.5     266.5     154.2     164.2      56.5    0.000     0.000     0.000     0.000     0.000    2.28     0.00    0.00      0   -9.90   -9.00        6.2       11.4       11.7       10.5        9.5        9.5        9.5        9.5        9.5        9.5        9.5        9.5        0.0        0.0        0.0        0.0        0.0        0.0        0.0        0.0        0.0        0.0        0.0        0.0     12.6      11.7      18.9      26.8      34.7    401.01
    17    12  2015    -9     0     220.1     3.2      0.0    0.0    3.2    0.0      0.0      0.0   -9.90     12.2      6.2     50      0.0      0.0   100     12.2     6.2      50     17.6    2.28     -9     -9     -9      0     -9     0.0     0.0      0    -9.00      0.0      0.0      0.0   100    34.5    19.954    48.1    9.607   10.674      99        0.81    0.000    0.000     220.1    220.1    2.28   218.5     965.7     266.5     266.5     151.3     164.2      56.5    0.000     0.000     0.000     0.000     0.000    2.28     0.00    0.00      0   -9.90   -9.00        3.2       11.4       11.7       10.5        9.5        9.5        9.5        9.5        9.5        9.5        9.5        9.5        0.0        0.0        0.0        0.0        0.0        0.0        0.0        0.0        0.0        0.0        0.0        0.0      3.2      11.1      21.2      28.0      34.7    401.01
    18    12  2015    -9     0     219.3     4.7      0.0    0.0    4.7    0.0      0.0      0.0   -9.90     11.8      5.5     46      0.0      0.0   100     11.8     5.5      46     17.8    2.28     -9     -9     -9      0     -9     0.0     0.0      0    -9.00      0.0      0.0      0.0   100    34.5    19.954    48.1    9.607   10.674      99        0.81    0.000    0.000     219.3    219.3    2.28   217.7     965.7     266.5     266.5     149.5     164.2      56.5    0.000     0.000     0.000     0.000     0.000    2.28     0.00    0.00      0   -9.90   -9.00        2.4       11.4       11.7       10.5        9.5        9.5        9.5        9.5        9.5        9.5        9.5        9.5        0.0        0.0        0.0        0.0        0.0        0.0        0.0        0.0        0.0        0.0        0.0        0.0      4.7      10.8      21.5      27.9      34.2    401.01
    19    12  2015    -9     0     218.3     3.9      0.0    0.0    3.9    0.0      0.0      0.0   -9.90     12.8      4.9     38      0.0      0.0   100     12.8     4.9      38     16.4    2.28     -9     -9     -9      0     -9     0.0     0.0      0    -9.00      0.0      0.0      0.0   100    34.5    19.954    48.1    9.607   10.674      99        0.81    0.000    0.000     218.3    218.3    2.28   216.6     965.7     266.5     266.5     154.1     164.2      56.5    0.000     0.000     0.000     0.000     0.000    2.28     0.00    0.00      0   -9.90   -9.00        1.3       11.4       11.7       10.5        9.5        9.5        9.5        9.5        9.5        9.5        9.5        9.5        0.0        0.0        0.0        0.0        0.0        0.0        0.0        0.0        0.0        0.0        0.0        0.0      3.9      11.7      18.9      26.8      34.6    401.01
    20    12  2015    -9     0     217.3     1.0      0.0    0.0    1.0    0.0      0.0      0.0   -9.90     12.3      1.9     16      0.0      0.0   100     12.3     1.9      16     16.0    2.28     -9     -9     -9      0     -9     0.0     0.0      0    -9.00      0.0      0.0      0.0   100    34.5    19.954    48.1    9.607   10.674      99        0.81    0.000    0.000     217.3    217.3    2.28   215.7     965.7     266.5     266.5     151.6     164.2      56.5    0.000     0.000     0.000     0.000     0.000    2.28     0.00    0.00      0   -9.90   -9.00        1.2       10.9       11.7       10.5        9.5        9.5        9.5        9.5        9.5        9.5        9.5        9.5        0.0        0.0        0.0        0.0        0.0        0.0        0.0        0.0        0.0        0.0        0.0        0.0      1.0      11.2      18.0      25.6      33.2    401.01
    21    12  2015    -9     0     219.4     8.1      0.0    0.0    8.1    0.0      0.0      0.0   -9.90     11.8      6.1     51      0.0      0.0   100     11.8     6.1      51     17.4    2.28     -9     -9     -9      0     -9     0.0     0.0      0    -9.00      0.0      0.0      0.0   100    34.5    19.954    48.1    9.607   10.674      99        0.81    0.000    0.000     219.4    219.4    2.28   217.7     965.7     266.5     266.5     149.6     164.2      56.5    0.000     0.000     0.000     0.000     0.000    2.28     0.00    0.00      0   -9.90   -9.00        3.2       10.9       11.7       10.5        9.5        9.5        9.5        9.5        9.5        9.5        9.5        9.5        0.0        0.0        0.0        0.0        0.0        0.0        0.0        0.0        0.0        0.0        0.0        0.0      8.1      10.8      20.7      27.2      33.8    401.01
    22    12  2015    -9     0     220.0     7.8      0.0    0.0    7.8    0.0      0.0      0.0   -9.90     12.1      7.2     59      0.0      0.0   100     12.1     7.2      59     17.1    2.28     -9     -9     -9      0     -9     0.0     0.0      0    -9.00      0.0      0.0      0.0   100    34.5    19.954    48.1    9.607   10.674      99        0.81    0.000    0.000     220.0    220.0    2.28   218.3     965.7     266.5     266.5     150.6     164.2      56.5    0.000     0.000     0.000     0.000     0.000    2.28     0.00    0.00      0   -9.90   -9.00        3.8       10.9       11.7       10.5        9.5        9.5        9.5        9.5        9.5        9.5        9.5        9.5        0.0        0.0        0.0        0.0        0.0        0.0        0.0        0.0        0.0        0.0        0.0        0.0      7.8      11.0      20.3      27.1      33.9    401.01
    23    12  2015    -9     0     218.3     1.9      0.0    0.0    1.9    0.0      0.0      0.0   -9.90     12.2      3.6     30      0.0      0.0   100     12.2     3.6      30     17.4    2.28     -9     -9     -9      0     -9     0.0     0.0      0    -9.00      0.0      0.0      0.0   100    34.5    19.954    48.1    9.607   10.674      99        0.81    0.000    0.000     218.3    218.3    2.28   216.6     965.7     266.5     266.5     151.1     164.2      56.5    0.000     0.000     0.000     0.000     0.000    2.28     0.00    0.00      0   -9.90   -9.00        2.1       10.9       11.7       10.5        9.5        9.5        9.5        9.5        9.5        9.5        9.5        9.5        0.0        0.0        0.0        0.0        0.0        0.0        0.0        0.0        0.0        0.0        0.0        0.0      1.9      11.1      20.8      27.6      34.4    401.01
    24    12  2015    -9     0     217.5     3.4      0.0    0.0    3.4    0.0      0.0      0.0   -9.90     11.7      4.2     36      0.0      0.0   100     11.7     4.2      36     17.6    2.28     -9     -9     -9      0     -9     0.0     0.0      0    -9.00      0.0      0.0      0.0   100    34.5    19.954    48.1    9.607   10.674      99        0.81    0.000    0.000     217.5    217.5    2.28   215.8     965.7     266.5     266.5     149.1     164.2      56.5    0.000     0.000     0.000     0.000     0.000    2.28     0.00    0.00      0   -9.90   -9.00        1.3       10.9       11.7       10.5        9.5        9.5        9.5        9.5        9.5        9.5        9.5        9.5        0.0        0.0        0.0        0.0        0.0        0.0        0.0        0.0        0.0        0.0        0.0        0.0      3.4      10.7      21.2      27.5      33.8    401.01
    25    12  2015    -9     0     217.1     4.3      0.0    0.0    4.3    0.0      0.0      0.0   -9.90     12.3      4.7     38      0.0      0.0   100     12.3     4.7      38     17.0    2.28     -9     -9     -9      0     -9     0.0     0.0      0    -9.00      0.0      0.0      0.0   100    34.5    19.954    48.1    9.607   10.674      99        0.81    0.000    0.000     217.1    217.1    2.28   215.4     965.7     266.5     266.5     151.6     164.2      56.5    0.000     0.000     0.000     0.000     0.000    2.28     0.00    0.00      0   -9.90   -9.00        1.2       10.7       11.7       10.5        9.5        9.5        9.5        9.5        9.5        9.5        9.5        9.5        0.0        0.0        0.0        0.0        0.0        0.0        0.0        0.0        0.0        0.0        0.0        0.0      4.3      11.2      20.0      27.1      34.2    401.01
    26    12  2015    -9     0     217.2     4.8      0.0    0.0    4.8    0.0      0.0      0.0   -9.90     11.8      4.7     40      0.0      0.0   100     11.8     4.7      40     17.8    2.28     -9     -9     -9      0     -9     0.0     0.0      0    -9.00      0.0      0.0      0.0   100    34.5    19.954    48.1    9.607   10.674      99        0.81    0.000    0.000     217.2    217.2    2.28   215.5     965.7     266.5     266.5     149.4     164.2      56.5    0.000     0.000     0.000     0.000     0.000    2.28     0.00    0.00      0   -9.90   -9.00        1.2       10.7       11.7       10.5        9.5        9.5        9.5        9.5        9.5        9.5        9.5        9.5        0.0        0.0        0.0        0.0        0.0        0.0        0.0        0.0        0.0        0.0        0.0        0.0      4.8      10.7      21.6      27.8      34.1    401.01
    27    12  2015    -9     0     216.6     3.7      0.0    0.0    3.7    0.0      0.0      0.0   -9.90     11.9      4.3     37      0.0      0.0   100     11.9     4.3      37     16.9    2.28     -9     -9     -9      0     -9     0.0     0.0      0    -9.00      0.0      0.0      0.0   100    34.5    19.954    48.1    9.607   10.674      99        0.81    0.000    0.000     216.6    216.6    2.28   214.9     965.7     266.5     266.5     149.7     164.2      56.5    0.000     0.000     0.000     0.000     0.000    2.28     0.00    0.00      0   -9.90   -9.00        1.2       10.3       11.7       10.5        9.5        9.5        9.5        9.5        9.5        9.5        9.5        9.5        0.0        0.0        0.0        0.0        0.0        0.0        0.0        0.0        0.0        0.0        0.0        0.0      3.7      10.8      19.8      26.5      33.2    401.01
    28    12  2015    -9     0     225.9    18.1      0.0    0.0   18.1    0.0      0.0      0.0   -9.90     12.0      8.8     73      0.0      0.0   100     12.0     8.8      73     16.8    2.28     -9     -9     -9      0     -9     0.0     0.0      0    -9.00      0.0      0.0      0.0   100    34.5    19.954    48.1    9.607   10.674      99        0.81    0.000    0.000     225.9    225.9    2.28   224.2     965.7     266.5     266.5     150.1     164.2      56.5    0.000     0.000     0.000     0.000     0.000    2.28     0.00    0.00      0   -9.90   -9.00       10.6       10.3       11.7       10.5        9.5        9.5        9.5        9.5        9.5        9.5        9.5        9.5        0.0        0.0        0.0        0.0        0.0        0.0        0.0        0.0        0.0        0.0        0.0        0.0     18.1      10.9      19.6      26.4      33.3    401.01
    29    12  2015    -9     0     223.9     6.2      0.0    0.0    6.2    0.0      0.0      0.0   -9.90     11.2      8.2     73      0.0      0.0   100     11.2     8.2      73     17.2    2.28     -9     -9     -9      0     -9     0.0     0.0      0    -9.00      0.0      0.0      0.0   100    34.5    19.954    48.1    9.607   10.674      99        0.81    0.000    0.000     223.9    223.9    2.28   222.2     965.7     266.5     266.5     146.8     164.2      56.5    0.000     0.000     0.000     0.000     0.000    2.28     0.00    0.00      0   -9.90   -9.00        8.6       10.3       11.7       10.5        9.5        9.5        9.5        9.5        9.5        9.5        9.5        9.5        0.0        0.0        0.0        0.0        0.0        0.0        0.0        0.0        0.0        0.0        0.0        0.0      6.2      10.2      20.5      26.5      32.5    401.01
    30    12  2015    -9     0     223.7     8.0      0.0    0.0    8.0    0.0      0.0      0.0   -9.90     11.5      8.2     71      0.0      0.0   100     11.5     8.2      71     16.6    2.28     -9     -9     -9      0     -9     0.0     0.0      0    -9.00      0.0      0.0      0.0   100    34.5    19.954    48.1    9.607   10.674      99        0.81    0.000    0.000     223.7    223.7    2.28   222.1     965.7     266.5     266.5     148.2     164.2      56.5    0.000     0.000     0.000     0.000     0.000    2.28     0.00    0.00      0   -9.90   -9.00        8.5       10.3       11.7       10.5        9.5        9.5        9.5        9.5        9.5        9.5        9.5        9.5        0.0        0.0        0.0        0.0        0.0        0.0        0.0        0.0        0.0        0.0        0.0        0.0      8.0      10.5      19.2      25.7      32.2    401.01
    31    12  2015    -9     0     220.8     4.7      0.0    0.0    4.7    0.0      0.0      0.0   -9.90     11.0      7.6     69      0.0      0.0   100     11.0     7.6      69     17.6    2.28     -9     -9     -9      0     -9     0.0     0.0      0    -9.00      0.0      0.0      0.0   100    34.5    19.954    48.1    9.607   10.674      99        0.81    0.000    0.000     220.8    220.8    2.28   219.2     965.7     266.5     266.5     145.8     164.2      56.5    0.000     0.000     0.000     0.000     0.000    2.28     0.00    0.00      0   -9.90   -9.00        5.5       10.3       11.7       10.5        9.5        9.5        9.5        9.5        9.5        9.5        9.5        9.5        0.0        0.0        0.0        0.0        0.0        0.0        0.0        0.0        0.0        0.0        0.0        0.0      4.7      10.0      21.2      26.8      32.4    401.01
