AquaCrop 7.1 (August 2023) - Output created on (date) : 16-01-2026   at (time) : 12:17:05

    RunNr     Day1   Month1    Year1     Rain      ETo       GD     CO2      Irri   Infilt   Runoff    Drain   Upflow        E     E/Ex       Tr      TrW   Tr/Trx    SaltIn   SaltOut    SaltUp  SaltProf     Cycle   SaltStr  FertStr  WeedStr  TempStr   ExpStr   StoStr  BioMass  Brelative   HI    Y(dry)  Y(fresh)    WPet      Bin     Bout     DayN   MonthN    YearN
                                           mm       mm  degC.day    ppm        mm       mm       mm       mm       mm       mm        %       mm       mm        %    ton/ha    ton/ha    ton/ha    ton/ha      days       %        %        %        %        %        %    ton/ha        %       %    ton/ha   ton/ha    kg/m3   ton/ha   ton/ha
   Tot(1)        1        7     2011   1109.8   2424.8   3124.4   391.85    607.0   1107.8      2.0      0.0      0.0    927.3       54    835.9    835.9      100     0.000     0.000     0.000     0.000       89        0       30        0        0        0        0    19.902      100     48.2    9.588   10.653     0.82    0.000    0.000       31       12     2011  cluster_100.PRM
   Tot(2)        1        7     2012   1014.4   2408.4   3121.3   394.06    608.9   1012.9      1.6      0.0      0.0    848.6       50    830.9    830.9      100     0.000     0.000     0.000     0.000       89        0       30        0        0        0        0    19.912      100     48.1    9.587   10.652     0.81    0.000    0.000       31       12     2012  cluster_100.PRM
   Tot(3)        1        7     2013   1103.4   2414.3   3132.7   396.74    521.5   1098.5      4.9      0.0      0.0    838.6       49    831.5    831.5      100     0.000     0.000     0.000     0.000       89        0       30        0        0        0        0    19.963      100     48.1    9.611   10.679     0.81    0.000    0.000       31       12     2013  cluster_100.PRM
   Tot(4)        1        7     2014   1014.5   2430.1   3122.5   398.81    596.9   1012.9      1.6      0.0      0.0    833.4       49    831.3    831.3      100     0.000     0.000     0.000     0.000       89        0       30        0        0        1        0    19.939       99     48.2    9.606   10.673     0.82    0.000    0.000       31       12     2014  cluster_100.PRM
   Tot(5)        1        7     2015   1081.2   2418.5   3124.8   401.01    617.4   1076.2      5.0     10.0      0.0    900.5       53    830.8    830.8      100     0.000     0.000     0.000     0.000       89        0       30        0        0        1        0    19.954       99     48.1    9.607   10.674     0.81    0.000    0.000       31       12     2015  cluster_100.PRM
