AquaCrop 7.1 (August 2023) - Output created on (date) : 29-01-2026   at (time) : 01:20:27

   Run:   1
   Day Month  Year   DAP Stage   WC(2.30)   Rain     Irri   Surf   Infilt   RO    Drain       CR    Zgwt       Ex       E     E/Ex     Trx       Tr  Tr/Trx    ETx      ET  ET/ETx      GD       Z     StExp  StSto  StSen StSalt StWeed   CC      CCw     StTr  Kc(Tr)     Trx       Tr      TrW  Tr/Trx   WP    Biomass     HI    Y(dry)  Y(fresh)  Brelative    WPet      Bin     Bout  WC(2.30) Wr(2.30)     Z       Wr    Wr(SAT)    Wr(FC)   Wr(exp)   Wr(sto)   Wr(sen)   Wr(PWP)    SaltIn    SaltOut   SaltUp   Salt(2.30)  SaltZ     Z       ECe    ECsw   StSalt  Zgwt    ECgw       WC01       WC 2       WC 3       WC 4       WC 5       WC 6       WC 7       WC 8       WC 9       WC10       WC11       WC12      ECe01      ECe 2      ECe 3      ECe 4      ECe 5      ECe 6      ECe 7      ECe 8      ECe 9      ECe10      ECe11      ECe12     Rain       ETo      Tmin      Tavg      Tmax      CO2
                                      mm      mm       mm     mm     mm     mm       mm       mm      m        mm       mm     %        mm       mm    %        mm      mm       %  degC-day     m       %      %      %      %      %      %       %       %       -        mm       mm       mm    %     g/m2    ton/ha      %    ton/ha   ton/ha       %       kg/m3   ton/ha   ton/ha      mm       mm       m       mm        mm        mm        mm        mm        mm         mm    ton/ha    ton/ha    ton/ha    ton/ha    ton/ha     m      dS/m    dS/m      %     m      dS/m       0.05       0.18       0.33       0.48       0.63       0.80       1.00       1.20       1.43       1.68       1.93       2.18       0.05       0.18       0.33       0.48       0.63       0.80       1.00       1.20       1.43       1.68       1.93       2.18       mm        mm     degC      degC      degC       ppm
     1     7  2024     1     1     268.3     0.0      0.0    0.0    0.0    0.0      0.0      0.0   -9.90      0.3      0.3     98      0.0      0.0   100      0.3     0.3      98     19.9    0.30     -9     -9     -9      0     -9     0.0     0.0      0    -9.00      0.0      0.0      0.0   100     0.0     0.000    -9.9    0.000    0.000      -9        0.00    0.000    0.000     268.3    268.3    0.30    34.3     125.1      34.6      30.7      12.4      15.5       6.9    0.000     0.000     0.000     0.000     0.000    0.30     0.00    0.00      0   -9.90   -9.00       11.4       11.7       11.7       11.7       11.7       11.7       11.7       11.7       11.7       11.7       11.7       11.7        0.0        0.0        0.0        0.0        0.0        0.0        0.0        0.0        0.0        0.0        0.0        0.0      0.0       0.3      25.8      28.9      32.0    422.57
     2     7  2024     2     1     268.4     0.4      0.0    0.0    0.4    0.0      0.0      0.0   -9.90      0.3      0.3    100      0.0      0.0   100      0.3     0.3     100     19.7    0.30     -9     -9     -9      0     -9     0.0     0.0      0    -9.00      0.0      0.0      0.0   100     0.0     0.000    -9.9    0.000    0.000      -9        0.00    0.000    0.000     268.4    268.4    0.30    34.4     125.1      34.6      30.7      12.5      15.5       6.9    0.000     0.000     0.000     0.000     0.000    0.30     0.00    0.00      0   -9.90   -9.00       11.5       11.7       11.7       11.7       11.7       11.7       11.7       11.7       11.7       11.7       11.7       11.7        0.0        0.0        0.0        0.0        0.0        0.0        0.0        0.0        0.0        0.0        0.0        0.0      0.4       0.3      25.4      29.4      33.4    422.57
     3     7  2024     3     1     268.2     0.2      0.0    0.0    0.2    0.0      0.0      0.0   -9.90      0.3      0.3     98      0.0      0.0   100      0.3     0.3      98     20.0    0.30     -9     -9     -9      0     -9     0.0     0.0      0    -9.00      0.0      0.0      0.0   100     0.0     0.000    -9.9    0.000    0.000      -9        0.00    0.000    0.000     268.2    268.2    0.30    34.2     125.1      34.6      30.7      12.5      15.5       6.9    0.000     0.000     0.000     0.000     0.000    0.30     0.00    0.00      0   -9.90   -9.00       11.4       11.7       11.7       11.7       11.7       11.7       11.7       11.7       11.7       11.7       11.7       11.7        0.0        0.0        0.0        0.0        0.0        0.0        0.0        0.0        0.0        0.0        0.0        0.0      0.2       0.3      25.9      29.8      33.6    422.57
     4     7  2024     4     1     268.2     0.3      0.0    0.0    0.3    0.0      0.0      0.0   -9.90      0.3      0.3    100      0.0      0.0   100      0.3     0.3     100     19.8    0.30     -9     -9     -9      0     -9     0.0     0.0      0    -9.00      0.0      0.0      0.0   100     0.0     0.000    -9.9    0.000    0.000      -9        0.00    0.000    0.000     268.2    268.2    0.30    34.2     125.1      34.6      30.7      12.5      15.5       6.9    0.000     0.000     0.000     0.000     0.000    0.30     0.00    0.00      0   -9.90   -9.00       11.3       11.7       11.7       11.7       11.7       11.7       11.7       11.7       11.7       11.7       11.7       11.7        0.0        0.0        0.0        0.0        0.0        0.0        0.0        0.0        0.0        0.0        0.0        0.0      0.3       0.3      25.6      29.2      32.8    422.57
     5     7  2024     5     1     268.1     0.1      0.0    0.0    0.1    0.0      0.0      0.0   -9.90      0.3      0.3    100      0.0      0.0   100      0.3     0.3     100     19.2    0.32     -9     -9     -9      0     -9     0.0     0.0      0    -9.00      0.0      0.0      0.0   100     0.0     0.000    -9.9    0.000    0.000      -9        0.00    0.000    0.000     268.1    268.1    0.32    36.4     133.5      36.9      32.8      13.3      16.5       7.4    0.000     0.000     0.000     0.000     0.000    0.32     0.00    0.00      0   -9.90   -9.00       11.2       11.7       11.7       11.7       11.7       11.7       11.7       11.7       11.7       11.7       11.7       11.7        0.0        0.0        0.0        0.0        0.0        0.0        0.0        0.0        0.0        0.0        0.0        0.0      0.1       0.3      24.5      28.1      31.8    422.57
     6     7  2024     6     1     267.7     0.0      0.0    0.0    0.0    0.0      0.0      0.0   -9.90      0.4      0.4     96      0.0      0.0   100      0.4     0.4      96     19.4    0.36     -9     -9     -9      0     -9     0.0     0.0      0    -9.00      0.0      0.0      0.0   100     0.0     0.000    -9.9    0.000    0.000      -9        0.00    0.000    0.000     267.7    267.7    0.36    40.7     150.6      41.6      37.0      15.1      18.7       8.4    0.000     0.000     0.000     0.000     0.000    0.36     0.00    0.00      0   -9.90   -9.00       10.8       11.7       11.7       11.7       11.7       11.7       11.7       11.7       11.7       11.7       11.7       11.7        0.0        0.0        0.0        0.0        0.0        0.0        0.0        0.0        0.0        0.0        0.0        0.0      0.0       0.3      24.8      30.1      35.3    422.57
     7     7  2024     7     2     268.0     0.6      0.0    0.0    0.6    0.0      0.0      0.0   -9.90      0.2      0.2    100      0.0      0.0   100      0.2     0.2     100     19.4    0.40     -9      0      0      0      0     0.4     0.4      0     0.01      0.0      0.0      0.0   100    35.0     0.003    -9.9    0.000    0.000     100        0.00    0.000    0.000     268.0    268.0    0.40    45.4     166.4      46.0      34.2      16.6      16.6       9.3    0.000     0.000     0.000     0.000     0.000    0.40     0.00    0.00      0   -9.90   -9.00       11.1       11.7       11.7       11.7       11.7       11.7       11.7       11.7       11.7       11.7       11.7       11.7        0.0        0.0        0.0        0.0        0.0        0.0        0.0        0.0        0.0        0.0        0.0        0.0      0.6       0.2      25.3      27.4      29.5    422.57
     8     7  2024     8     2     273.0     5.3      0.0    0.0    5.3    0.0      0.0      0.0   -9.90      0.3      0.3    100      0.0      0.0   100      0.3     0.3     100     19.4    0.43     -9      0      0      0      0     0.5     0.5      0     0.01      0.0      0.0      0.0   100    35.0     0.006    -9.9    0.000    0.000     100        0.00    0.000    0.000     273.0    273.0    0.43    54.5     181.2      50.1      37.3      18.2      18.2      10.2    0.000     0.000     0.000     0.000     0.000    0.43     0.00    0.00      0   -9.90   -9.00       16.2       11.7       11.7       11.7       11.7       11.7       11.7       11.7       11.7       11.7       11.7       11.7        0.0        0.0        0.0        0.0        0.0        0.0        0.0        0.0        0.0        0.0        0.0        0.0      5.3       0.2      24.9      27.4      30.0    422.57
     9     7  2024     9     2     272.2     1.0      0.0    0.0    1.0    0.0      1.5      0.0   -9.90      0.3      0.3    100      0.0      0.0   100      0.3     0.3     100     19.4    0.47      0      0      0      0      0     0.6     0.6      0     0.01      0.0      0.0      0.0   100    35.0     0.010    -9.9    0.000    0.000     100        0.00    0.000    0.000     272.2    272.2    0.47    56.2     195.4      54.0      40.4      19.7      19.7      11.0    0.000     0.000     0.000     0.000     0.000    0.47     0.00    0.00      0   -9.90   -9.00       12.6       12.1       12.1       12.0       11.9       11.8       11.8       11.8       11.7       11.7       11.7       11.7        0.0        0.0        0.0        0.0        0.0        0.0        0.0        0.0        0.0        0.0        0.0        0.0      1.0       0.3      24.7      28.3      32.0    422.57
    10     7  2024    10     2     269.9     0.0      0.0    0.0    0.0    0.0      2.0      0.0   -9.90      0.3      0.3    100      0.0      0.0   100      0.3     0.3     100     18.9    0.50      0      0      0      0      0     0.7     0.7      0     0.01      0.0      0.0      0.0   100    35.0     0.014    -9.9    0.000    0.000     100        0.00    0.000    0.000     269.9    269.9    0.50    58.0     209.1      57.8      43.2      21.1      21.1      11.9    0.000     0.000     0.000     0.000     0.000    0.50     0.00    0.00      0   -9.90   -9.00       11.5       11.8       11.8       11.8       11.8       11.8       11.8       11.8       11.7       11.7       11.7       11.7        0.0        0.0        0.0        0.0        0.0        0.0        0.0        0.0        0.0        0.0        0.0        0.0      0.0       0.3      23.8      28.2      32.6    422.57
    11     7  2024    11     2     268.6     0.0      0.0    0.0    0.0    0.0      1.0      0.0   -9.90      0.3      0.3     94      0.0      0.0   100      0.3     0.3      94     19.9    0.53      0      0      0      0      0     0.8     0.8      0     0.01      0.0      0.0      0.0   100    35.0     0.019    -9.9    0.000    0.000     100        0.00    0.000    0.000     268.6    268.6    0.53    61.0     222.3      61.4      46.0      22.4      22.4      12.6    0.000     0.000     0.000     0.000     0.000    0.53     0.00    0.00      0   -9.90   -9.00       11.2       11.7       11.7       11.7       11.7       11.7       11.7       11.7       11.7       11.7       11.7       11.7        0.0        0.0        0.0        0.0        0.0        0.0        0.0        0.0        0.0        0.0        0.0        0.0      0.0       0.3      25.9      29.7      33.6    422.57
    12     7  2024    12     2     268.3     0.3      0.0    0.0    0.3    0.0      0.4      0.0   -9.90      0.2      0.2    100      0.0      0.0   100      0.2     0.2     100     20.3    0.56      0      0      0      0      0     1.0     1.0      0     0.02      0.0      0.0      0.0   100    35.0     0.026    -9.9    0.000    0.000     100        0.00    0.000    0.000     268.3    268.3    0.56    64.6     235.2      65.0      48.5      23.7      23.7      13.4    0.000     0.000     0.000     0.000     0.000    0.56     0.00    0.00      0   -9.90   -9.00       11.3       11.7       11.7       11.7       11.7       11.7       11.7       11.7       11.7       11.7       11.7       11.7        0.0        0.0        0.0        0.0        0.0        0.0        0.0        0.0        0.0        0.0        0.0        0.0      0.3       0.2      26.7      28.8      30.9    422.57
    13     7  2024    13     2     268.8     0.9      0.0    0.0    0.9    0.0      0.1      0.0   -9.90      0.3      0.3    100      0.0      0.0   100      0.3     0.3     100     19.9    0.59      0      0      0      0      0     1.2     1.2      0     0.02      0.0      0.0      0.0   100    35.0     0.033    -9.9    0.000    0.000     100        0.00    0.000    0.000     268.8    268.8    0.59    68.6     247.7      68.4      51.1      25.0      25.0      14.1    0.000     0.000     0.000     0.000     0.000    0.59     0.00    0.00      0   -9.90   -9.00       11.9       11.7       11.7       11.7       11.7       11.7       11.7       11.7       11.7       11.7       11.7       11.7        0.0        0.0        0.0        0.0        0.0        0.0        0.0        0.0        0.0        0.0        0.0        0.0      0.9       0.3      25.8      28.8      31.7    422.57
    14     7  2024    14     2     268.4     0.0      0.0    0.0    0.0    0.0      0.1      0.0   -9.90      0.3      0.3     98      0.0      0.0   100      0.4     0.3      98     19.4    0.62      0      0      0      0      0     1.4     1.4      0     0.02      0.0      0.0      0.0   100    35.0     0.041    -9.9    0.000    0.000     100        0.00    0.000    0.000     268.4    268.4    0.62    71.6     259.9      71.8      53.8      26.3      26.3      14.8    0.000     0.000     0.000     0.000     0.000    0.62     0.00    0.00      0   -9.90   -9.00       11.4       11.7       11.7       11.7       11.7       11.7       11.7       11.7       11.7       11.7       11.7       11.7        0.0        0.0        0.0        0.0        0.0        0.0        0.0        0.0        0.0        0.0        0.0        0.0      0.0       0.3      24.8      29.3      33.8    422.57
    15     7  2024    15     2     268.3     0.2      0.0    0.0    0.2    0.0      0.1      0.0   -9.90      0.3      0.3     98      0.0      0.0   100      0.3     0.3      98     20.1    0.65      0      0      0      0      0     1.6     1.6      0     0.03      0.0      0.0      0.0   100    35.0     0.051    -9.9    0.000    0.000     100        0.00    0.000    0.000     268.3    268.3    0.65    74.7     271.9      75.1      56.2      27.5      27.5      15.6    0.000     0.000     0.000     0.000     0.000    0.65     0.00    0.00      0   -9.90   -9.00       11.3       11.7       11.7       11.7       11.7       11.7       11.7       11.7       11.7       11.7       11.7       11.7        0.0        0.0        0.0        0.0        0.0        0.0        0.0        0.0        0.0        0.0        0.0        0.0      0.2       0.3      26.2      29.4      32.6    422.57
    16     7  2024    16     2     269.2     1.3      0.0    0.0    1.3    0.0      0.0      0.0   -9.90      0.3      0.3    100      0.0      0.0   100      0.3     0.3     100     20.1    0.67      0      0      0      0      0     1.9     1.9      0     0.03      0.0      0.0      0.0   100    35.0     0.063    -9.9    0.000    0.000     100        0.00    0.000    0.000     269.2    269.2    0.67    78.9     283.6      78.3      58.7      28.7      28.7      16.2    0.000     0.000     0.000     0.000     0.000    0.67     0.00    0.00      0   -9.90   -9.00       12.3       11.7       11.7       11.7       11.7       11.7       11.7       11.7       11.7       11.7       11.7       11.7        0.0        0.0        0.0        0.0        0.0        0.0        0.0        0.0        0.0        0.0        0.0        0.0      1.3       0.3      26.1      29.9      33.6    422.57
    17     7  2024    17     2     269.0     0.3      0.0    0.0    0.3    0.0      0.2      0.0   -9.90      0.3      0.3    100      0.0      0.0   100      0.3     0.3     100     20.0    0.70      0      0      0      0      0     2.3     2.3      0     0.04      0.0      0.0      0.0   100    35.0     0.077    -9.9    0.000    0.000     100        0.00    0.000    0.000     269.0    269.0    0.70    81.8     295.2      81.5      61.0      29.9      29.9      16.9    0.000     0.000     0.000     0.000     0.000    0.70     0.00    0.00      0   -9.90   -9.00       11.7       11.7       11.8       11.7       11.7       11.7       11.7       11.7       11.7       11.7       11.7       11.7        0.0        0.0        0.0        0.0        0.0        0.0        0.0        0.0        0.0        0.0        0.0        0.0      0.3       0.3      25.9      29.3      32.7    422.57
    18     7  2024    18     2     272.4     4.0      0.0    0.0    4.0    0.0      0.2      0.0   -9.90      0.3      0.3    100      0.0      0.0   100      0.3     0.3     100     19.5    0.73      0      0      0      0      0     2.7     2.7      0     0.05      0.0      0.0      0.0   100    35.0     0.094    -9.9    0.000    0.000     100        0.00    0.000    0.000     272.4    272.4    0.73    88.4     306.5      84.6      63.3      31.0      31.0      17.6    0.000     0.000     0.000     0.000     0.000    0.73     0.00    0.00      0   -9.90   -9.00       15.4       11.7       11.7       11.7       11.7       11.7       11.7       11.7       11.7       11.7       11.7       11.7        0.0        0.0        0.0        0.0        0.0        0.0        0.0        0.0        0.0        0.0        0.0        0.0      4.0       0.3      25.0      28.3      31.6    422.57
    19     7  2024    19     2     274.8     4.1      0.0    0.0    4.1    0.0      1.3      0.0   -9.90      0.3      0.3    100      0.0      0.0   100      0.3     0.3     100     19.4    0.75      0      0      0      0      0     3.2     3.2      0     0.06      0.0      0.0      0.0   100    35.0     0.113    -9.9    0.000    0.000     100        0.00    0.000    0.000     274.8    274.8    0.75    93.4     317.7      87.7      65.7      32.2      32.2      18.3    0.000     0.000     0.000     0.000     0.000    0.75     0.00    0.00      0   -9.90   -9.00       16.0       12.0       12.0       11.9       11.8       11.8       11.8       11.7       11.7       11.7       11.7       11.7        0.0        0.0        0.0        0.0        0.0        0.0        0.0        0.0        0.0        0.0        0.0        0.0      4.1       0.3      24.8      28.9      33.0    422.57
    20     7  2024    20     2     272.0     0.2      0.0    0.0    0.2    0.0      2.7      0.0   -9.90      0.3      0.3    100      0.0      0.0   100      0.3     0.3     100     20.2    0.78      0      0      0      0      0     3.7     3.7      0     0.06      0.0      0.0      0.0   100    35.0     0.136    -9.9    0.000    0.000     100        0.00    0.000    0.000     272.0    272.0    0.78    93.0     328.7      90.8      67.9      33.3      33.3      18.9    0.000     0.000     0.000     0.000     0.000    0.78     0.00    0.00      0   -9.90   -9.00       11.9       12.1       12.1       12.0       11.9       11.8       11.8       11.8       11.8       11.8       11.8       11.7        0.0        0.0        0.0        0.0        0.0        0.0        0.0        0.0        0.0        0.0        0.0        0.0      0.2       0.3      26.5      29.8      33.2    422.57
    21     7  2024    21     2     269.6     0.1      0.0    0.0    0.1    0.0      2.2      0.0   -9.90      0.3      0.3     99      0.0      0.0   100      0.3     0.3      99     20.1    0.81      0      0      0      0      0     4.4     4.4      0     0.08      0.0      0.0      0.0   100    35.0     0.163    -9.9    0.000    0.000     100        0.00    0.000    0.000     269.6    269.6    0.81    94.1     339.6      93.8      70.2      34.4      34.4      19.5    0.000     0.000     0.000     0.000     0.000    0.81     0.00    0.00      0   -9.90   -9.00       11.5       11.8       11.8       11.8       11.8       11.8       11.8       11.8       11.7       11.7       11.7       11.7        0.0        0.0        0.0        0.0        0.0        0.0        0.0        0.0        0.0        0.0        0.0        0.0      0.1       0.3      26.2      29.4      32.7    422.57
    22     7  2024    22     2     268.4     0.0      0.0    0.0    0.0    0.0      0.9      0.0   -9.90      0.3      0.3     93      0.0      0.0   100      0.3     0.3      94     20.1    0.83      0      0      0      0      0     5.2     5.2      0     0.09      0.0      0.0      0.0   100    35.0     0.194    -9.9    0.000    0.000     100        0.00    0.000    0.000     268.4    268.4    0.83    96.3     350.3      96.7      72.5      35.6      35.6      20.2    0.000     0.000     0.000     0.000     0.000    0.83     0.00    0.00      0   -9.90   -9.00       11.2       11.7       11.7       11.7       11.7       11.7       11.7       11.7       11.7       11.7       11.7       11.7        0.0        0.0        0.0        0.0        0.0        0.0        0.0        0.0        0.0        0.0        0.0        0.0      0.0       0.3      26.2      29.9      33.6    422.57
    23     7  2024    23     2     268.3     0.5      0.0    0.0    0.5    0.0      0.3      0.0   -9.90      0.2      0.2    100      0.0      0.0   100      0.3     0.3     100     20.4    0.86      0      0      0      0      0     6.1     6.1      0     0.10      0.0      0.0      0.0   100    35.0     0.231    -9.9    0.000    0.000     100        0.00    0.000    0.000     268.3    268.3    0.86    99.3     360.9      99.7      74.5      36.6      36.6      20.8    0.000     0.000     0.000     0.000     0.000    0.86     0.00    0.00      0   -9.90   -9.00       11.3       11.7       11.7       11.7       11.7       11.7       11.7       11.7       11.7       11.7       11.7       11.7        0.0        0.0        0.0        0.0        0.0        0.0        0.0        0.0        0.0        0.0        0.0        0.0      0.5       0.2      26.7      29.2      31.7    422.57
    24     7  2024    24     2     271.3     3.3      0.0    0.0    3.3    0.0      0.1      0.0   -9.90      0.3      0.3    100      0.0      0.0   100      0.3     0.3     100     20.1    0.88      0      0      0      0      0     7.2     7.2      0     0.12      0.0      0.0      0.0   100    35.0     0.274    -9.9    0.000    0.000     100        0.00    0.000    0.000     271.3    271.3    0.88   105.3     371.4     102.5      76.7      37.7      37.7      21.4    0.000     0.000     0.000     0.000     0.000    0.88     0.00    0.00      0   -9.90   -9.00       14.4       11.7       11.7       11.7       11.7       11.7       11.7       11.7       11.7       11.7       11.7       11.7        0.0        0.0        0.0        0.0        0.0        0.0        0.0        0.0        0.0        0.0        0.0        0.0      3.3       0.3      26.2      29.2      32.2    422.57
    25     7  2024    25     2     291.6    24.2      0.0    0.0   21.4    2.8      0.9      0.0   -9.90      0.2      0.2    100      0.0      0.0   100      0.2     0.2     100     19.1    0.91      0      0      0      0      0     8.5     8.5      0     0.14      0.0      0.0      0.0   100    35.0     0.324    -9.9    0.000    0.000     100        0.00    0.000    0.000     291.6    291.6    0.91   128.1     381.7     105.4      78.7      38.6      38.6      22.0    0.000     0.000     0.000     0.000     0.000    0.91     0.00    0.00      0   -9.90   -9.00       33.7       11.9       11.9       11.8       11.8       11.8       11.7       11.7       11.7       11.7       11.7       11.7        0.0        0.0        0.0        0.0        0.0        0.0        0.0        0.0        0.0        0.0        0.0        0.0     24.2       0.2      25.1      27.1      29.0    422.57
    26     7  2024    26     2     314.6    42.9      0.0    0.0   33.3    9.6     10.0      0.0   -9.90      0.2      0.2    100      0.0      0.0   100      0.3     0.3     100     19.3    0.93      0      0      0      0      0    10.0    10.0      0     0.17      0.0      0.0      0.0   100    35.0     0.383    -9.9    0.000    0.000     100        0.00    0.000    0.000     314.6    314.6    0.93   150.3     392.0     108.2      81.0      39.8      39.8      22.6    0.000     0.000     0.000     0.000     0.000    0.93     0.00    0.00      0   -9.90   -9.00       42.0       15.0       13.6       12.9       12.6       12.3       12.3       12.1       12.0       12.0       11.9       11.9        0.0        0.0        0.0        0.0        0.0        0.0        0.0        0.0        0.0        0.0        0.0        0.0     42.9       0.3      24.7      27.9      31.2    422.57
    27     7  2024    27     2     290.7     1.0      0.0    0.0    1.0    0.0     24.7      0.0   -9.90      0.2      0.2    100      0.1      0.1   100      0.3     0.3     100     19.9    0.95      0      0      0      0      0    11.8    11.8      0     0.20      0.1      0.1      0.1   100    35.0     0.452    -9.9    0.000    0.000     100        0.00    0.000    0.000     290.7    290.7    0.95   125.5     402.2     111.0      83.1      40.9      40.9      23.2    0.000     0.000     0.000     0.000     0.000    0.95     0.00    0.00      0   -9.90   -9.00       12.5       12.6       14.5       13.7       13.2       12.9       12.6       12.4       12.3       12.2       12.1       12.1        0.0        0.0        0.0        0.0        0.0        0.0        0.0        0.0        0.0        0.0        0.0        0.0      1.0       0.3      25.8      29.2      32.5    422.57
    28     7  2024    28     2     275.6     0.2      0.0    0.0    0.2    0.0     14.9      0.0   -9.90      0.2      0.2    100      0.1      0.1   100      0.3     0.3     100     19.8    0.98      0      0      0      0      0    14.0    14.0      0     0.23      0.1      0.1      0.1   100    35.0     0.532    -9.9    0.000    0.000     100        0.00    0.000    0.000     275.6    275.6    0.98   117.2     412.2     113.8      85.2      41.9      41.9      23.8    0.000     0.000     0.000     0.000     0.000    0.98     0.00    0.00      0   -9.90   -9.00       11.6       11.8       12.3       12.2       12.1       12.1       12.1       12.0       12.0       12.0       11.9       11.9        0.0        0.0        0.0        0.0        0.0        0.0        0.0        0.0        0.0        0.0        0.0        0.0      0.2       0.3      25.6      28.8      32.1    422.57
    29     7  2024    29     2     270.1     0.0      0.0    0.0    0.0    0.0      5.3      0.0   -9.90      0.2      0.2     97      0.1      0.1   100      0.3     0.3      98     19.4    1.00      0      0      0      0      0    16.5    16.5      0     0.27      0.1      0.1      0.1   100    35.0     0.626    -9.9    0.000    0.000     100        0.00    0.000    0.000     270.1    270.1    1.00   117.0     422.2     116.6      87.3      42.9      42.9      24.4    0.000     0.000     0.000     0.000     0.000    1.00     0.00    0.00      0   -9.90   -9.00       11.3       11.7       11.9       11.8       11.8       11.8       11.8       11.8       11.8       11.8       11.8       11.8        0.0        0.0        0.0        0.0        0.0        0.0        0.0        0.0        0.0        0.0        0.0        0.0      0.0       0.3      24.7      28.4      32.0    422.57
    30     7  2024    30     2     268.4     0.0      0.0    0.0    0.0    0.0      1.4      0.0   -9.90      0.2      0.2    100      0.1      0.1   100      0.3     0.3     100     19.8    1.02      0      0      0      0      0    19.4    19.4      0     0.31      0.1      0.1      0.1   100    35.0     0.734    -9.9    0.000    0.000     100        0.00    0.000    0.000     268.4    268.4    1.02   118.8     432.0     119.3      89.3      43.9      43.9      25.0    0.000     0.000     0.000     0.000     0.000    1.02     0.00    0.00      0   -9.90   -9.00       11.0       11.7       11.7       11.7       11.7       11.7       11.7       11.7       11.7       11.7       11.7       11.7        0.0        0.0        0.0        0.0        0.0        0.0        0.0        0.0        0.0        0.0        0.0        0.0      0.0       0.3      25.6      28.9      32.1    422.57
    31     7  2024    31     2     267.9     0.2      0.0    0.0    0.2    0.0      0.4      0.0   -9.90      0.2      0.2    100      0.1      0.1   100      0.3     0.3     100     19.8    1.05      0      0      0      0      0    22.9    22.9      0     0.36      0.1      0.1      0.1   100    35.0     0.859    -9.9    0.000    0.000     100        0.00    0.000    0.000     267.9    267.9    1.05   121.3     441.8     122.0      91.4      44.9      44.9      25.6    0.000     0.000     0.000     0.000     0.000    1.05     0.00    0.00      0   -9.90   -9.00       10.9       11.7       11.7       11.7       11.7       11.7       11.7       11.7       11.7       11.7       11.7       11.7        0.0        0.0        0.0        0.0        0.0        0.0        0.0        0.0        0.0        0.0        0.0        0.0      0.2       0.3      25.6      29.0      32.4    422.57
     1     8  2024    32     2     267.9     0.3      0.0    0.0    0.3    0.0      0.1      0.0   -9.90      0.2      0.2    100      0.1      0.1   100      0.3     0.3     100     19.3    1.07      0      0      0      0      0    27.0    27.0      0     0.41      0.1      0.1      0.1   100    35.0     1.003    -9.9    0.000    0.000     100        0.00    0.000    0.000     267.9    267.9    1.07   124.0     451.5     124.7      93.4      45.9      45.9      26.1    0.000     0.000     0.000     0.000     0.000    1.07     0.00    0.00      0   -9.90   -9.00       11.0       11.7       11.7       11.7       11.7       11.7       11.7       11.7       11.7       11.7       11.7       11.7        0.0        0.0        0.0        0.0        0.0        0.0        0.0        0.0        0.0        0.0        0.0        0.0      0.3       0.3      24.6      28.3      32.0    422.57
     2     8  2024    33     2     267.6     0.0      0.0    0.0    0.0    0.0      0.0      0.0   -9.90      0.2      0.2     94      0.1      0.1   100      0.3     0.3      97     19.7    1.09      0      0      0      0      0    31.8    31.8      0     0.47      0.1      0.1      0.1   100    35.0     1.168    -9.9    0.000    0.000     100        0.00    0.000    0.000     267.6    267.6    1.09   126.3     461.2     127.3      95.3      46.9      46.9      26.7    0.000     0.000     0.000     0.000     0.000    1.09     0.00    0.00      0   -9.90   -9.00       10.7       11.7       11.7       11.7       11.7       11.7       11.7       11.7       11.7       11.7       11.7       11.7        0.0        0.0        0.0        0.0        0.0        0.0        0.0        0.0        0.0        0.0        0.0        0.0      0.0       0.3      25.5      28.8      32.1    422.57
     3     8  2024    34     2     267.3     0.0      0.0    0.0    0.0    0.0      0.0      0.0   -9.90      0.2      0.2     99      0.2      0.2   100      0.3     0.3     100     19.5    1.12      0      0      0      0      0    37.5    37.5      0     0.54      0.2      0.2      0.2   100    35.0     1.357    -9.9    0.000    0.000     100        0.00    0.000    0.000     267.3    267.3    1.12   128.7     470.7     130.0      97.4      47.9      47.9      27.3    0.000     0.000     0.000     0.000     0.000    1.12     0.00    0.00      0   -9.90   -9.00       10.4       11.7       11.7       11.7       11.7       11.7       11.7       11.7       11.7       11.7       11.7       11.7        0.0        0.0        0.0        0.0        0.0        0.0        0.0        0.0        0.0        0.0        0.0        0.0      0.0       0.3      25.1      28.7      32.4    422.57
     4     8  2024    35     2     268.5     1.4      0.0    0.0    1.4    0.0      0.0      0.0   -9.90      0.1      0.1    100      0.1      0.1   100      0.2     0.2     100     18.3    1.14      0      0      0      0      0    44.3    44.3      0     0.61      0.1      0.1      0.1   100    35.0     1.571    -9.9    0.000    0.000     100        0.00    0.000    0.000     268.5    268.5    1.14   132.5     480.2     132.6      98.8      48.6      48.6      27.8    0.000     0.000     0.000     0.000     0.000    1.14     0.00    0.00      0   -9.90   -9.00       11.6       11.7       11.7       11.7       11.7       11.7       11.7       11.7       11.7       11.7       11.7       11.7        0.0        0.0        0.0        0.0        0.0        0.0        0.0        0.0        0.0        0.0        0.0        0.0      1.4       0.1      25.2      26.3      27.4    422.57
     5     8  2024    36     2     304.0    47.4      0.0    0.0   35.7   11.7      0.0      0.0   -9.90      0.1      0.1    100      0.2      0.2   100      0.2     0.2     100     19.4    1.16      0      0      0      0      0    51.8    51.8      0     0.69      0.2      0.2      0.2   100    35.0     1.812    -9.9    0.000    0.000     100        0.00    0.000    0.000     304.0    304.0    1.16   170.6     489.6     135.2     101.0      49.7      49.7      28.4    0.000     0.000     0.000     0.000     0.000    1.16     0.00    0.00      0   -9.90   -9.00       42.1       15.5       11.7       11.7       11.7       11.7       11.7       11.7       11.7       11.7       11.7       11.7        0.0        0.0        0.0        0.0        0.0        0.0        0.0        0.0        0.0        0.0        0.0        0.0     47.4       0.2      25.1      27.4      29.7    422.57
     6     8  2024    37     2     296.3     9.5      0.0    0.0    9.4    0.1     16.8      0.0   -9.90      0.1      0.1    100      0.2      0.2   100      0.3     0.3     100     19.5    1.18      0      0      0      0      0    58.4    58.4      0     0.75      0.2      0.2      0.2   100    35.0     2.075    -9.9    0.000    0.000     100        0.00    0.000    0.000     296.3    296.3    1.18   161.3     499.0     137.8     103.1      50.8      50.8      28.9    0.000     0.000     0.000     0.000     0.000    1.18     0.00    0.00      0   -9.90   -9.00       21.0       12.5       14.6       13.6       13.0       12.7       12.4       12.3       12.2       12.1       12.0       12.0        0.0        0.0        0.0        0.0        0.0        0.0        0.0        0.0        0.0        0.0        0.0        0.0      9.5       0.3      25.0      28.3      31.6    422.57
     7     8  2024    38     2     282.4     2.8      0.0    0.0    2.8    0.0     16.5      0.0   -9.90      0.1      0.1    100      0.2      0.2   100      0.3     0.3     100     20.0    1.20      0      0      0      0      0    64.0    64.0      0     0.80      0.2      0.2      0.2   100    35.0     2.354    -9.9    0.000    0.000     100        0.00    0.000    0.000     282.4    282.4    1.20   150.7     508.3     140.3     105.0      51.7      51.7      29.5    0.000     0.000     0.000     0.000     0.000    1.20     0.00    0.00      0   -9.90   -9.00       14.7       12.4       12.7       12.5       12.4       12.3       12.2       12.1       12.1       12.0       12.0       12.0        0.0        0.0        0.0        0.0        0.0        0.0        0.0        0.0        0.0        0.0        0.0        0.0      2.8       0.2      26.0      28.8      31.5    422.57
     8     8  2024    39     2     278.5     5.1      0.0    0.0    5.1    0.0      8.7      0.0   -9.90      0.1      0.1    100      0.2      0.2   100      0.3     0.3     100     19.9    1.23      0      0      0      0      0    68.8    68.8      0     0.84      0.2      0.2      0.2   100    35.0     2.647    -9.9    0.000    0.000     100        0.00    0.000    0.000     278.5    278.5    1.23   151.2     517.5     142.9     107.0      52.7      52.7      30.0    0.000     0.000     0.000     0.000     0.000    1.23     0.00    0.00      0   -9.90   -9.00       17.0       12.0       12.1       12.0       12.0       11.9       11.9       11.9       11.9       11.9       11.8       11.8        0.0        0.0        0.0        0.0        0.0        0.0        0.0        0.0        0.0        0.0        0.0        0.0      5.1       0.3      25.7      29.0      32.2    422.57
     9     8  2024    40     2     276.0     3.1      0.0    0.0    3.1    0.0      5.3      0.0   -9.90      0.0      0.0    100      0.2      0.2   100      0.3     0.3     100     20.3    1.25      0      0      0      0      0    72.8    72.8      0     0.87      0.2      0.2      0.2   100    35.0     2.950    -9.9    0.000    0.000     100        0.00    0.000    0.000     276.0    276.0    1.25   151.8     526.7     145.4     108.8      53.6      53.6      30.6    0.000     0.000     0.000     0.000     0.000    1.25     0.00    0.00      0   -9.90   -9.00       15.0       12.1       12.2       12.0       11.9       11.9       11.8       11.8       11.8       11.8       11.8       11.8        0.0        0.0        0.0        0.0        0.0        0.0        0.0        0.0        0.0        0.0        0.0        0.0      3.1       0.3      26.6      29.6      32.6    422.57
    10     8  2024    41     2     272.5     0.7      0.0    0.0    0.7    0.0      4.0      0.0   -9.90      0.0      0.0    100      0.2      0.2   100      0.2     0.2     100     20.5    1.27      0      0      0      0      0    76.2    76.2      0     0.89      0.2      0.2      0.2   100    35.0     3.263    -9.9    0.000    0.000     100        0.00    0.000    0.000     272.5    272.5    1.27   151.1     535.8     147.9     110.6      54.4      54.4      31.1    0.000     0.000     0.000     0.000     0.000    1.27     0.00    0.00      0   -9.90   -9.00       12.3       12.0       12.1       12.0       11.9       11.9       11.8       11.8       11.8       11.8       11.8       11.8        0.0        0.0        0.0        0.0        0.0        0.0        0.0        0.0        0.0        0.0        0.0        0.0      0.7       0.2      27.0      29.4      31.8    422.57
    11     8  2024    42     2     269.9     0.2      0.0    0.0    0.2    0.0      2.5      0.0   -9.90      0.0      0.0    100      0.3      0.3   100      0.3     0.3     100     19.9    1.29      0      0      0      0      0    79.1    79.1      0     0.91      0.3      0.3      0.3   100    35.0     3.584    -9.9    0.000    0.000     100        0.00    0.000    0.000     269.9    269.9    1.29   151.3     544.9     150.4     112.7      55.5      55.5      31.6    0.000     0.000     0.000     0.000     0.000    1.29     0.00    0.00      0   -9.90   -9.00       11.6       11.8       11.8       11.8       11.8       11.8       11.8       11.8       11.8       11.7       11.7       11.7        0.0        0.0        0.0        0.0        0.0        0.0        0.0        0.0        0.0        0.0        0.0        0.0      0.2       0.3      25.9      29.3      32.7    422.57
    12     8  2024    43     2     272.0     3.3      0.0    0.0    3.3    0.0      1.0      0.0   -9.90      0.0      0.0    100      0.2      0.2   100      0.3     0.3     100     20.1    1.31      0      0      0      0      0    81.6    81.6      0     0.93      0.2      0.2      0.2   100    35.0     3.910    -9.9    0.000    0.000     100        0.00    0.000    0.000     272.0    272.0    1.31   156.1     553.9     152.9     114.4      56.3      56.3      32.2    0.000     0.000     0.000     0.000     0.000    1.31     0.00    0.00      0   -9.90   -9.00       14.7       11.7       11.7       11.7       11.7       11.7       11.7       11.7       11.7       11.7       11.7       11.7        0.0        0.0        0.0        0.0        0.0        0.0        0.0        0.0        0.0        0.0        0.0        0.0      3.3       0.2      26.1      28.9      31.6    422.57
    13     8  2024    44     2     271.1     0.7      0.0    0.0    0.7    0.0      1.3      0.0   -9.90      0.0      0.0    100      0.2      0.2   100      0.3     0.3     100     20.2    1.33      0      0      0      0      0    83.7    83.7      0     0.95      0.2      0.2      0.2   100    35.0     4.242    -9.9    0.000    0.000     100        0.00    0.000    0.000     271.1    271.1    1.33   157.6     562.8     155.4     116.3      57.3      57.3      32.7    0.000     0.000     0.000     0.000     0.000    1.33     0.00    0.00      0   -9.90   -9.00       12.2       11.9       12.0       11.9       11.8       11.8       11.8       11.7       11.7       11.7       11.7       11.7        0.0        0.0        0.0        0.0        0.0        0.0        0.0        0.0        0.0        0.0        0.0        0.0      0.7       0.3      26.5      29.4      32.3    422.57
    14     8  2024    45     2     269.8     0.4      0.0    0.0    0.4    0.0      1.4      0.0   -9.90      0.0      0.0    100      0.2      0.2   100      0.2     0.2     100     20.0    1.35      0      0      0      0      0    85.4    85.4      0     0.96      0.2      0.2      0.2   100    35.0     4.578    -9.9    0.000    0.000     100        0.00    0.000    0.000     269.8    269.8    1.35   158.8     571.7     157.8     118.1      58.1      58.1      33.2    0.000     0.000     0.000     0.000     0.000    1.35     0.00    0.00      0   -9.90   -9.00       11.9       11.8       11.8       11.8       11.8       11.8       11.7       11.7       11.7       11.7       11.7       11.7        0.0        0.0        0.0        0.0        0.0        0.0        0.0        0.0        0.0        0.0        0.0        0.0      0.4       0.2      26.0      28.7      31.3    422.57
    15     8  2024    46     2     269.3     0.5      0.0    0.0    0.5    0.0      0.8      0.0   -9.90      0.0      0.0    100      0.3      0.3   100      0.3     0.3     100     19.9    1.37      0      0      0      0      0    86.9    86.9      0     0.97      0.3      0.3      0.3   100    35.0     4.917    -9.9    0.000    0.000     100        0.00    0.000    0.000     269.3    269.3    1.37   160.8     580.6     160.3     120.0      59.1      59.1      33.8    0.000     0.000     0.000     0.000     0.000    1.37     0.00    0.00      0   -9.90   -9.00       12.0       11.7       11.7       11.7       11.7       11.7       11.7       11.7       11.7       11.7       11.7       11.7        0.0        0.0        0.0        0.0        0.0        0.0        0.0        0.0        0.0        0.0        0.0        0.0      0.5       0.3      25.8      28.8      31.9    422.57
    16     8  2024    47     2     271.4     2.7      0.0    0.0    2.7    0.0      0.4      0.0   -9.90      0.0      0.0    100      0.2      0.2   100      0.2     0.2     100     20.0    1.40      0      0      0      0      0    88.2    88.2      0     0.98      0.2      0.2      0.2   100    35.0     5.260    -9.9    0.000    0.000     100        0.00    0.000    0.000     271.4    271.4    1.40   165.4     589.4     162.7     121.6      59.9      59.9      34.3    0.000     0.000     0.000     0.000     0.000    1.40     0.00    0.00      0   -9.90   -9.00       14.3       11.7       11.7       11.7       11.7       11.7       11.7       11.7       11.7       11.7       11.7       11.7        0.0        0.0        0.0        0.0        0.0        0.0        0.0        0.0        0.0        0.0        0.0        0.0      2.7       0.2      26.0      28.3      30.6    422.57
    17     8  2024    48     2     277.2     7.0      0.0    0.0    6.9    0.0      1.0      0.0   -9.90      0.0      0.0    100      0.2      0.2   100      0.2     0.2     100     19.0    1.42      0      0      0      0      0    89.3    89.3      0     0.98      0.2      0.2      0.2   100    35.0     5.605    -9.9    0.000    0.000     100        0.00    0.000    0.000     277.2    277.2    1.42   173.5     598.2     165.1     123.1      60.6      60.6      34.8    0.000     0.000     0.000     0.000     0.000    1.42     0.00    0.00      0   -9.90   -9.00       18.9       11.9       11.9       11.8       11.8       11.8       11.7       11.7       11.7       11.7       11.7       11.7        0.0        0.0        0.0        0.0        0.0        0.0        0.0        0.0        0.0        0.0        0.0        0.0      7.0       0.2      25.8      27.0      28.1    422.57
    18     8  2024    49     2     276.1     2.6      0.0    0.0    2.6    0.0      3.4      0.0   -9.90      0.0      0.0    100      0.2      0.2   100      0.2     0.2     100     20.1    1.44      0      0      0      0      0    90.2    90.2      0     0.99      0.2      0.2      0.2   100    35.0     5.952    -9.9    0.000    0.000     100        0.00    0.000    0.000     276.1    276.1    1.44   174.4     606.9     167.5     125.3      61.7      61.7      35.3    0.000     0.000     0.000     0.000     0.000    1.44     0.00    0.00      0   -9.90   -9.00       14.5       12.3       12.4       12.1       12.1       11.9       11.9       11.8       11.8       11.8       11.8       11.8        0.0        0.0        0.0        0.0        0.0        0.0        0.0        0.0        0.0        0.0        0.0        0.0      2.6       0.2      26.1      28.7      31.2    422.57
    19     8  2024    50     2     281.5     9.8      0.0    0.0    9.6    0.2      3.9      0.0   -9.90      0.0      0.0    100      0.2      0.2   100      0.2     0.2     100     20.0    1.46      0      0      0      0      0    90.9    90.9      0     1.00      0.2      0.2      0.2   100    35.0     6.301    -9.9    0.000    0.000     100        0.00    0.000    0.000     281.5    281.5    1.46   182.3     615.5     169.9     126.9      62.5      62.5      35.8    0.000     0.000     0.000     0.000     0.000    1.46     0.00    0.00      0   -9.90   -9.00       21.6       12.0       12.0       12.0       11.9       11.9       11.8       11.8       11.8       11.8       11.8       11.8        0.0        0.0        0.0        0.0        0.0        0.0        0.0        0.0        0.0        0.0        0.0        0.0      9.8       0.2      26.2      28.0      29.8    422.57
    20     8  2024    51     2     291.9    17.3      0.0    0.0   16.2    1.2      5.6      0.0   -9.90      0.0      0.0    100      0.1      0.1   100      0.1     0.1     100     18.6    1.48      0      0      0      0      0    91.6    91.6      0     1.00      0.1      0.1      0.1   100    35.0     6.652    -9.9    0.000    0.000     100        0.00    0.000    0.000     291.9    291.9    1.48   194.8     624.2     172.3     128.4      63.2      63.2      36.3    0.000     0.000     0.000     0.000     0.000    1.48     0.00    0.00      0   -9.90   -9.00       29.0       12.4       12.6       12.2       12.1       12.0       11.9       11.9       11.8       11.8       11.8       11.8        0.0        0.0        0.0        0.0        0.0        0.0        0.0        0.0        0.0        0.0        0.0        0.0     17.3       0.1      25.7      26.6      27.5    422.57
    21     8  2024    52     2     291.1    10.4      0.0    0.0   10.2    0.2     10.8      0.0   -9.90      0.0      0.0    100      0.3      0.3   100      0.3     0.3     100     19.4    1.50      0      0      0      0      0    92.1    92.1      0     1.00      0.3      0.3      0.3   100    35.0     7.003    -9.9    0.000    0.000     100        0.00    0.000    0.000     291.1    291.1    1.50   195.6     632.8     174.7     130.7      64.4      64.4      36.8    0.000     0.000     0.000     0.000     0.000    1.50     0.00    0.00      0   -9.90   -9.00       22.9       12.8       13.3       12.7       12.4       12.3       12.1       12.0       12.0       11.9       11.9       11.9        0.0        0.0        0.0        0.0        0.0        0.0        0.0        0.0        0.0        0.0        0.0        0.0     10.4       0.2      24.7      27.5      30.3    422.57
    22     8  2024    53     2     281.9     3.0      0.0    0.0    3.0    0.0     12.0      0.0   -9.90      0.0      0.0    100      0.3      0.3   100      0.3     0.3     100     19.7    1.52      0      0      0      0      0    92.6    92.6      0     1.01      0.3      0.3      0.3   100    35.0     7.356    -9.9    0.000    0.000     100        0.00    0.000    0.000     281.9    281.9    1.52   188.6     641.3     177.0     132.5      65.3      65.3      37.3    0.000     0.000     0.000     0.000     0.000    1.52     0.00    0.00      0   -9.90   -9.00       15.0       12.6       12.9       12.5       12.3       12.2       12.1       12.1       12.0       11.9       11.9       11.9        0.0        0.0        0.0        0.0        0.0        0.0        0.0        0.0        0.0        0.0        0.0        0.0      3.0       0.3      25.5      28.5      31.6    422.57
    23     8  2024    54     2     277.2     3.6      0.0    0.0    3.6    0.0      8.0      0.0   -9.90      0.0      0.0    100      0.3      0.3   100      0.3     0.3     100     19.8    1.54      0      0      0      0      0    93.0    93.0      0     1.01      0.3      0.3      0.3   100    35.0     7.710    -9.9    0.000    0.000     100        0.00    0.000    0.000     277.2    277.2    1.54   186.9     649.8     179.4     134.5      66.3      66.3      37.8    0.000     0.000     0.000     0.000     0.000    1.54     0.00    0.00      0   -9.90   -9.00       15.5       12.1       12.1       12.1       12.0       12.0       11.9       11.9       11.9       11.8       11.8       11.8        0.0        0.0        0.0        0.0        0.0        0.0        0.0        0.0        0.0        0.0        0.0        0.0      3.6       0.3      25.6      29.5      33.3    422.57
    24     8  2024    55     2     272.4     0.3      0.0    0.0    0.3    0.0      4.8      0.0   -9.90      0.0      0.0    100      0.3      0.3   100      0.3     0.3     100     18.9    1.56      0      0      0      0      0    93.3    93.3      0     1.01      0.3      0.3      0.3   100    35.0     8.064    -9.9    0.000    0.000     100        0.00    0.000    0.000     272.4    272.4    1.56   184.9     658.3     181.7     136.0      67.0      67.0      38.3    0.000     0.000     0.000     0.000     0.000    1.56     0.00    0.00      0   -9.90   -9.00       11.9       12.0       12.1       12.0       12.0       11.9       11.8       11.8       11.8       11.8       11.8       11.8        0.0        0.0        0.0        0.0        0.0        0.0        0.0        0.0        0.0        0.0        0.0        0.0      0.3       0.2      23.9      26.9      29.9    422.57
    25     8  2024    56     3     269.8     0.2      0.0    0.0    0.2    0.0      2.5      0.0   -9.90      0.0      0.0    100      0.3      0.3   100      0.3     0.3     100     20.0    1.58      0      0      0      0      0    93.5    93.5      0     1.01      0.3      0.3      0.3   100    35.0     8.420    -9.9    0.000    0.000     100        0.00    0.000    0.000     269.8    269.8    1.58   185.0     666.7     184.0     137.9      68.0      68.0      38.8    0.000     0.000     0.000     0.000     0.000    1.58     0.00    0.00      0   -9.90   -9.00       11.7       11.7       11.8       11.8       11.8       11.8       11.8       11.8       11.7       11.7       11.7       11.7        0.0        0.0        0.0        0.0        0.0        0.0        0.0        0.0        0.0        0.0        0.0        0.0      0.2       0.3      26.0      29.3      32.6    422.57
    26     8  2024    57     3     273.9     5.2      0.0    0.0    5.2    0.0      0.9      0.0   -9.90      0.0      0.0    100      0.3      0.3   100      0.3     0.3     100     19.4    1.60      0      0      0      0      0    93.7    93.7      0     1.01      0.3      0.3      0.3   100    35.0     8.775    -9.9    0.000    0.000     100        0.00    0.000    0.000     273.9    273.9    1.60   191.5     675.1     186.4     139.5      68.8      68.8      39.3    0.000     0.000     0.000     0.000     0.000    1.60     0.00    0.00      0   -9.90   -9.00       16.7       11.7       11.7       11.7       11.7       11.7       11.7       11.7       11.7       11.7       11.7       11.7        0.0        0.0        0.0        0.0        0.0        0.0        0.0        0.0        0.0        0.0        0.0        0.0      5.2       0.3      24.9      28.1      31.4    422.57
    27     8  2024    58     3     276.5     4.8      0.0    0.0    4.8    0.0      1.9      0.0   -9.90      0.0      0.0    100      0.3      0.3   100      0.3     0.3     100     19.9    1.62      0      0      0      0      0    93.9    93.9      0     1.02      0.3      0.3      0.3   100    35.0     9.131     1.5    0.137    0.153     100        0.85    0.000    0.000     276.5    276.5    1.62   196.4     683.5     188.7     141.3      69.7      69.7      39.8    0.000     0.000     0.000     0.000     0.000    1.62     0.00    0.00      0   -9.90   -9.00       17.0       12.1       12.2       11.9       11.9       11.8       11.8       11.8       11.8       11.7       11.7       11.7        0.0        0.0        0.0        0.0        0.0        0.0        0.0        0.0        0.0        0.0        0.0        0.0      4.8       0.3      25.8      29.0      32.1    422.57
    28     8  2024    59     3     273.2     0.5      0.0    0.0    0.5    0.0      3.5      0.0   -9.90      0.0      0.0    100      0.3      0.3   100      0.3     0.3     100     20.4    1.64      0      0      0      0      0    94.0    94.0      0     1.02      0.3      0.3      0.3   100    35.0     9.487     1.8    0.175    0.194     100        1.07    0.000    0.000     273.2    273.2    1.64   195.1     691.8     191.0     143.0      70.5      70.5      40.3    0.000     0.000     0.000     0.000     0.000    1.64     0.00    0.00      0   -9.90   -9.00       12.1       12.2       12.2       12.1       12.0       11.9       11.9       11.8       11.8       11.8       11.8       11.8        0.0        0.0        0.0        0.0        0.0        0.0        0.0        0.0        0.0        0.0        0.0        0.0      0.5       0.3      26.7      29.6      32.6    422.57
    29     8  2024    60     3     270.3     0.2      0.0    0.0    0.2    0.0      2.9      0.0   -9.90      0.0      0.0    100      0.3      0.3   100      0.3     0.3     100     20.0    1.66      0      0      0      0      0    95.2    95.2      0     1.02      0.3      0.3      0.3   100    35.0     9.846     2.3    0.222    0.247     100        1.33    0.000    0.000     270.3    270.3    1.66   194.6     700.1     193.3     144.6      71.3      71.3      40.8    0.000     0.000     0.000     0.000     0.000    1.66     0.00    0.00      0   -9.90   -9.00       11.7       11.8       11.8       11.8       11.8       11.8       11.8       11.8       11.8       11.8       11.7       11.7        0.0        0.0        0.0        0.0        0.0        0.0        0.0        0.0        0.0        0.0        0.0        0.0      0.2       0.2      26.0      28.9      31.8    422.57
    30     8  2024    61     3     268.9     0.1      0.0    0.0    0.1    0.0      1.2      0.0   -9.90      0.0      0.0    100      0.3      0.3   100      0.3     0.3     100     19.8    1.68     -9      0      0      0      0    95.3    95.3      0     1.02      0.3      0.3      0.3   100    35.0    10.205     2.8    0.281    0.312     100        1.66    0.000    0.000     268.9    268.9    1.68   195.7     708.4     195.5     146.3      72.1      72.1      41.3    0.000     0.000     0.000     0.000     0.000    1.68     0.00    0.00      0   -9.90   -9.00       11.5       11.7       11.7       11.7       11.7       11.7       11.7       11.7       11.7       11.7       11.7       11.7        0.0        0.0        0.0        0.0        0.0        0.0        0.0        0.0        0.0        0.0        0.0        0.0      0.1       0.2      25.5      28.4      31.3    422.57
    31     8  2024    62     3     269.6     1.3      0.0    0.0    1.3    0.0      0.4      0.0   -9.90      0.0      0.0    100      0.3      0.3   100      0.3     0.3     100     20.0    1.70     -9      0      0      0      0    95.4    95.4      0     1.02      0.3      0.3      0.3   100    35.0    10.564     3.3    0.354    0.393     100        2.06    0.000    0.000     269.6    269.6    1.70   198.7     716.6     197.8     148.0      73.0      73.0      41.8    0.000     0.000     0.000     0.000     0.000    1.70     0.00    0.00      0   -9.90   -9.00       12.6       11.7       11.7       11.7       11.7       11.7       11.7       11.7       11.7       11.7       11.7       11.7        0.0        0.0        0.0        0.0        0.0        0.0        0.0        0.0        0.0        0.0        0.0        0.0      1.3       0.2      25.9      28.7      31.5    422.57
     1     9  2024    63     3     268.9     0.0      0.0    0.0    0.0    0.0      0.4      0.0   -9.90      0.0      0.0    100      0.3      0.3   100      0.3     0.3     100     19.4    1.71     -9      0      0      0      0    95.5    95.5      0     1.02      0.3      0.3      0.3   100    35.0    10.921     4.1    0.444    0.493     100        2.54    0.000    0.000     268.9    268.9    1.71   200.4     724.8     200.1     149.9      73.9      73.9      42.3    0.000     0.000     0.000     0.000     0.000    1.71     0.00    0.00      0   -9.90   -9.00       11.5       11.8       11.8       11.7       11.7       11.7       11.7       11.7       11.7       11.7       11.7       11.7        0.0        0.0        0.0        0.0        0.0        0.0        0.0        0.0        0.0        0.0        0.0        0.0      0.0       0.3      24.9      28.4      31.8    422.57
     2     9  2024    64     3     274.1     5.8      0.0    0.0    5.8    0.0      0.3      0.0   -9.90      0.0      0.0    100      0.3      0.3   100      0.3     0.3     100     19.8    1.73     -9      0      0      0      0    95.6    95.6      0     1.02      0.3      0.3      0.3   100    35.0    11.278     4.9    0.555    0.616     100        3.12    0.000    0.000     274.1    274.1    1.73   207.8     732.9     202.3     151.6      74.7      74.7      42.7    0.000     0.000     0.000     0.000     0.000    1.73     0.00    0.00      0   -9.90   -9.00       17.1       11.7       11.7       11.7       11.7       11.7       11.7       11.7       11.7       11.7       11.7       11.7        0.0        0.0        0.0        0.0        0.0        0.0        0.0        0.0        0.0        0.0        0.0        0.0      5.8       0.3      25.5      28.7      31.9    422.57
     3     9  2024    65     3     272.0     0.1      0.0    0.0    0.1    0.0      2.0      0.0   -9.90      0.0      0.0    100      0.2      0.2   100      0.2     0.2     100     20.4    1.75     -9      0      0      0      0    95.6    95.6      0     1.02      0.2      0.2      0.2   100    35.0    11.634     5.9    0.689    0.766     100        3.83    0.000    0.000     272.0    272.0    1.75   207.8     741.1     204.6     153.0      75.4      75.4      43.2    0.000     0.000     0.000     0.000     0.000    1.75     0.00    0.00      0   -9.90   -9.00       12.1       12.1       12.2       12.0       11.9       11.8       11.8       11.8       11.8       11.7       11.7       11.7        0.0        0.0        0.0        0.0        0.0        0.0        0.0        0.0        0.0        0.0        0.0        0.0      0.1       0.2      26.8      29.2      31.6    422.57
     4     9  2024    66     3     270.7     1.0      0.0    0.0    1.0    0.0      2.0      0.0   -9.90      0.0      0.0    100      0.3      0.3   100      0.3     0.3     100     20.4    1.77     -9      0      0      0      0    95.7    95.7      0     1.01      0.3      0.3      0.3   100    35.0    11.989     7.1    0.852    0.947     100        4.67    0.000    0.000     270.7    270.7    1.77   208.8     749.2     206.8     154.8      76.3      76.3      43.7    0.000     0.000     0.000     0.000     0.000    1.77     0.00    0.00      0   -9.90   -9.00       12.5       11.8       11.8       11.8       11.8       11.8       11.8       11.8       11.7       11.7       11.7       11.7        0.0        0.0        0.0        0.0        0.0        0.0        0.0        0.0        0.0        0.0        0.0        0.0      1.0       0.2      26.8      29.5      32.3    422.57
     5     9  2024    67     3     269.5     0.3      0.0    0.0    0.3    0.0      1.3      0.0   -9.90      0.0      0.0    100      0.2      0.2   100      0.2     0.2     100     20.1    1.79     -9      0      0      0      0    95.7    95.7      0     1.01      0.2      0.2      0.2   100    35.0    12.343     8.5    1.046    1.162     100        5.66    0.000    0.000     269.5    269.5    1.79   209.9     757.2     209.0     156.3      77.1      77.1      44.2    0.000     0.000     0.000     0.000     0.000    1.79     0.00    0.00      0   -9.90   -9.00       11.8       11.8       11.8       11.8       11.8       11.7       11.7       11.7       11.7       11.7       11.7       11.7        0.0        0.0        0.0        0.0        0.0        0.0        0.0        0.0        0.0        0.0        0.0        0.0      0.3       0.2      26.2      28.7      31.1    422.57
     6     9  2024    68     3     268.7     0.0      0.0    0.0    0.0    0.0      0.6      0.0   -9.90      0.0      0.0    100      0.3      0.3   100      0.3     0.3     100     19.8    1.81     -9      0      0      0      0    95.8    95.8      0     1.01      0.3      0.3      0.3   100    35.0    12.697    10.0    1.269    1.410     100        6.77    0.000    0.000     268.7    268.7    1.81   211.3     765.3     211.2     158.1      78.0      78.0      44.6    0.000     0.000     0.000     0.000     0.000    1.81     0.00    0.00      0   -9.90   -9.00       11.5       11.7       11.7       11.7       11.7       11.7       11.7       11.7       11.7       11.7       11.7       11.7        0.0        0.0        0.0        0.0        0.0        0.0        0.0        0.0        0.0        0.0        0.0        0.0      0.0       0.2      25.5      28.4      31.2    422.57
     7     9  2024    69     4     268.2     0.0      0.0    0.0    0.0    0.0      0.2      0.0   -9.90      0.0      0.0    100      0.3      0.3   100      0.3     0.3     100     19.1    1.83     -9      0      0      0      0    95.8    95.8      0     1.01      0.3      0.3      0.3   100    35.0    13.049    11.5    1.502    1.669     100        7.89    0.000    0.000     268.2    268.2    1.83   213.0     773.3     213.5     160.0      79.0      79.0      45.1    0.000     0.000     0.000     0.000     0.000    1.83     0.00    0.00      0   -9.90   -9.00       11.2       11.7       11.7       11.7       11.7       11.7       11.7       11.7       11.7       11.7       11.7       11.7        0.0        0.0        0.0        0.0        0.0        0.0        0.0        0.0        0.0        0.0        0.0        0.0      0.0       0.3      24.1      27.9      31.6    422.57
     8     9  2024    70     4     267.9     0.1      0.0    0.0    0.1    0.0      0.1      0.0   -9.90      0.0      0.0    100      0.3      0.3   100      0.3     0.3     100     19.1    1.85     -9      0      0      0      0    95.8    95.8      0     1.00      0.3      0.3      0.3   100    35.0    13.401    13.0    1.747    1.941     100        9.03    0.000    0.000     267.9    267.9    1.85   214.9     781.3     215.7     161.8      79.8      79.8      45.6    0.000     0.000     0.000     0.000     0.000    1.85     0.00    0.00      0   -9.90   -9.00       11.0       11.7       11.7       11.7       11.7       11.7       11.7       11.7       11.7       11.7       11.7       11.7        0.0        0.0        0.0        0.0        0.0        0.0        0.0        0.0        0.0        0.0        0.0        0.0      0.1       0.3      24.2      28.5      32.8    422.57
     9     9  2024    71     4     268.2     0.6      0.0    0.0    0.6    0.0      0.0      0.0   -9.90      0.0      0.0    100      0.2      0.2   100      0.2     0.2     100     19.4    1.87     -9      0      0      0      0    95.9    95.9      0     1.00      0.2      0.2      0.2   100    35.0    13.751    14.6    2.001    2.224     100       10.22    0.000    0.000     268.2    268.2    1.87   217.4     789.2     217.9     162.9      80.3      80.3      46.1    0.000     0.000     0.000     0.000     0.000    1.87     0.00    0.00      0   -9.90   -9.00       11.3       11.7       11.7       11.7       11.7       11.7       11.7       11.7       11.7       11.7       11.7       11.7        0.0        0.0        0.0        0.0        0.0        0.0        0.0        0.0        0.0        0.0        0.0        0.0      0.6       0.2      24.8      27.4      30.0    422.57
    10     9  2024    72     4     272.3     4.4      0.0    0.0    4.4    0.0      0.0      0.0   -9.90      0.0      0.0    100      0.2      0.2   100      0.3     0.3     100     19.5    1.89     -9      0      0      0      0    95.9    95.9      0     1.00      0.2      0.2      0.2   100    35.0    14.101    16.1    2.267    2.518     100       11.43    0.000    0.000     272.3    272.3    1.89   223.8     797.2     220.0     164.7      81.2      81.2      46.5    0.000     0.000     0.000     0.000     0.000    1.89     0.00    0.00      0   -9.90   -9.00       15.5       11.7       11.7       11.7       11.7       11.7       11.7       11.7       11.7       11.7       11.7       11.7        0.0        0.0        0.0        0.0        0.0        0.0        0.0        0.0        0.0        0.0        0.0        0.0      4.4       0.2      24.9      27.9      30.9    422.57
    11     9  2024    73     4     279.1     8.3      0.0    0.0    8.3    0.1      1.2      0.0   -9.90      0.0      0.0    100      0.3      0.3   100      0.3     0.3     100     19.6    1.90     -9      0      0      0      0    95.9    95.9      0     0.99      0.3      0.3      0.3   100    35.0    14.449    17.6    2.542    2.825     100       12.64    0.000    0.000     279.1    279.1    1.90   232.7     805.1     222.2     166.5      82.2      82.2      47.0    0.000     0.000     0.000     0.000     0.000    1.90     0.00    0.00      0   -9.90   -9.00       20.3       12.0       12.0       11.9       11.8       11.8       11.8       11.7       11.7       11.7       11.7       11.7        0.0        0.0        0.0        0.0        0.0        0.0        0.0        0.0        0.0        0.0        0.0        0.0      8.3       0.3      25.3      28.7      32.2    422.57
    12     9  2024    74     4     279.9     5.4      0.0    0.0    5.4    0.0      4.3      0.0   -9.90      0.0      0.0    100      0.3      0.3   100      0.3     0.3     100     19.4    1.92     -9      0      0      0      0    95.9    95.9      0     0.99      0.3      0.3      0.3   100    35.0    14.797    19.1    2.828    3.143     100       13.87    0.000    0.000     279.9    279.9    1.92   235.4     813.0     224.4     168.2      83.0      83.0      47.5    0.000     0.000     0.000     0.000     0.000    1.92     0.00    0.00      0   -9.90   -9.00       17.6       12.4       12.5       12.2       12.0       11.9       11.9       11.8       11.8       11.8       11.8       11.8        0.0        0.0        0.0        0.0        0.0        0.0        0.0        0.0        0.0        0.0        0.0        0.0      5.4       0.3      24.8      28.4      32.0    422.57
    13     9  2024    75     4     274.1     0.0      0.0    0.0    0.0    0.0      5.5      0.0   -9.90      0.0      0.0    100      0.3      0.3   100      0.3     0.3     100     19.2    1.94     -9      0      0      0      0    95.9    95.9      0     0.99      0.3      0.3      0.3   100    35.0    15.144    20.6    3.125    3.472     100       15.11    0.000    0.000     274.1    274.1    1.94   231.8     820.8     226.6     169.9      83.8      83.8      47.9    0.000     0.000     0.000     0.000     0.000    1.94     0.00    0.00      0   -9.90   -9.00       12.1       12.2       12.3       12.1       12.0       12.0       11.9       11.9       11.8       11.8       11.8       11.8        0.0        0.0        0.0        0.0        0.0        0.0        0.0        0.0        0.0        0.0        0.0        0.0      0.0       0.3      24.5      28.3      32.1    422.57
    14     9  2024    76     4     270.9     0.6      0.0    0.0    0.6    0.0      3.5      0.0   -9.90      0.0      0.0    100      0.3      0.3   100      0.3     0.3     100     19.9    1.96     -9      0     -9      0      0    95.3    95.3      0     0.98      0.3      0.3      0.3   100    35.0    15.486    22.2    3.431    3.812     100       16.39    0.000    0.000     270.9    270.9    1.96   230.8     828.6     228.7     171.3      84.5      84.5      48.4    0.000     0.000     0.000     0.000     0.000    1.96     0.00    0.00      0   -9.90   -9.00       12.1       11.8       11.8       11.8       11.8       11.8       11.8       11.8       11.8       11.8       11.8       11.8        0.0        0.0        0.0        0.0        0.0        0.0        0.0        0.0        0.0        0.0        0.0        0.0      0.6       0.3      25.8      28.7      31.7    422.57
    15     9  2024    77     4     277.6     8.6      0.0    0.0    8.5    0.1      1.5      0.0   -9.90      0.0      0.0    100      0.2      0.2   100      0.2     0.2     100     19.5    1.98     -9      0     -9      0      0    94.6    94.6      0     0.96      0.2      0.2      0.2   100    35.0    15.823    23.7    3.746    4.162     100       17.70    0.000    0.000     277.6    277.6    1.98   239.8     836.4     230.9     172.8      85.2      85.2      48.8    0.000     0.000     0.000     0.000     0.000    1.98     0.00    0.00      0   -9.90   -9.00       20.2       11.7       11.7       11.7       11.7       11.7       11.7       11.7       11.7       11.7       11.7       11.7        0.0        0.0        0.0        0.0        0.0        0.0        0.0        0.0        0.0        0.0        0.0        0.0      8.6       0.2      25.1      27.7      30.3    422.57
    16     9  2024    78     4     277.4     3.5      0.0    0.0    3.5    0.0      3.5      0.0   -9.90      0.0      0.0    100      0.2      0.2   100      0.2     0.2     100     19.2    2.00     -9      0     -9      0      0    93.9    93.9      0     0.95      0.2      0.2      0.2   100    35.0    16.155    25.2    4.070    4.523     100       19.05    0.000    0.000     277.4    277.4    2.00   241.7     844.2     233.0     174.2      85.9      85.9      49.3    0.000     0.000     0.000     0.000     0.000    2.00     0.00    0.00      0   -9.90   -9.00       15.5       12.3       12.5       12.1       12.0       11.9       11.9       11.8       11.8       11.8       11.8       11.8        0.0        0.0        0.0        0.0        0.0        0.0        0.0        0.0        0.0        0.0        0.0        0.0      3.5       0.2      25.1      27.2      29.3    422.57
    17     9  2024    79     4     292.1    21.3      0.0    0.0   19.3    2.0      4.4      0.0   -9.90      0.0      0.0    100      0.1      0.1   100      0.2     0.2     100     17.9    2.01     -9      0     -9      0      0    93.0    93.0      0     0.93      0.1      0.1      0.1   100    35.0    16.481    26.7    4.403    4.892     100       20.46    0.000    0.000     292.1    292.1    2.01   258.5     852.0     235.2     175.4      86.5      86.5      49.8    0.000     0.000     0.000     0.000     0.000    2.01     0.00    0.00      0   -9.90   -9.00       31.7       12.1       12.1       12.0       11.9       11.9       11.9       11.8       11.8       11.8       11.8       11.8        0.0        0.0        0.0        0.0        0.0        0.0        0.0        0.0        0.0        0.0        0.0        0.0     21.3       0.2      24.6      25.9      27.2    422.57
    18     9  2024    80     4     307.0    30.7      0.0    0.0   25.9    4.7     10.8      0.0   -9.90      0.0      0.0    100      0.3      0.3   100      0.3     0.3     100     19.4    2.03     -9      0     -9      0      0    92.0    92.0      0     0.91      0.3      0.3      0.3   100    35.0    16.801    28.2    4.744    5.271     100       21.77    0.000    0.000     307.0    307.0    2.03   275.2     859.7     237.3     177.9      87.8      87.8      50.2    0.000     0.000     0.000     0.000     0.000    2.03     0.00    0.00      0   -9.90   -9.00       38.3       12.8       13.5       12.8       12.5       12.3       12.1       12.1       12.0       12.0       11.9       11.9        0.0        0.0        0.0        0.0        0.0        0.0        0.0        0.0        0.0        0.0        0.0        0.0     30.7       0.3      24.8      28.3      31.8    422.57
    19     9  2024    81     4     287.6     1.1      0.0    0.0    1.1    0.0     20.2      0.0   -9.90      0.0      0.0    100      0.2      0.2   100      0.3     0.3     100     19.4    2.05     -9      0     -9      0      0    90.9    90.9      0     0.89      0.2      0.2      0.2   100    35.0    17.113    29.8    5.092    5.658     100       23.09    0.000    0.000     287.6    287.6    2.05   257.7     867.4     239.4     179.4      88.6      88.6      50.7    0.000     0.000     0.000     0.000     0.000    2.05     0.00    0.00      0   -9.90   -9.00       12.8       12.8       14.1       13.3       12.9       12.7       12.4       12.3       12.2       12.1       12.0       12.0        0.0        0.0        0.0        0.0        0.0        0.0        0.0        0.0        0.0        0.0        0.0        0.0      1.1       0.3      24.8      28.3      31.7    422.57
    20     9  2024    82     4     275.6     0.8      0.0    0.0    0.8    0.0     12.6      0.0   -9.90      0.0      0.0    100      0.3      0.3   100      0.3     0.3     100     19.0    2.07     -9      0     -9      0      0    89.6    89.6      0     0.87      0.3      0.3      0.3   100    35.0    17.418    31.3    5.448    6.053     100       24.41    0.000    0.000     275.6    275.6    2.07   248.2     875.1     241.5     181.1      89.4      89.4      51.1    0.000     0.000     0.000     0.000     0.000    2.07     0.00    0.00      0   -9.90   -9.00       12.4       11.9       12.3       12.1       12.1       12.1       12.0       12.0       12.0       11.9       11.9       11.9        0.0        0.0        0.0        0.0        0.0        0.0        0.0        0.0        0.0        0.0        0.0        0.0      0.8       0.3      24.1      27.9      31.6    422.57
    21     9  2024    83     4     271.8     1.4      0.0    0.0    1.4    0.0      5.0      0.0   -9.90      0.0      0.0    100      0.2      0.2   100      0.3     0.3     100     19.5    2.09     -9      0     -9      0      0    88.2    88.2      0     0.84      0.2      0.2      0.2   100    35.0    17.714    32.8    5.810    6.455     100       25.74    0.000    0.000     271.8    271.8    2.09   246.8     882.8     243.7     182.6      90.1      90.1      51.6    0.000     0.000     0.000     0.000     0.000    2.09     0.00    0.00      0   -9.90   -9.00       13.0       11.8       11.8       11.8       11.8       11.8       11.8       11.8       11.8       11.8       11.8       11.8        0.0        0.0        0.0        0.0        0.0        0.0        0.0        0.0        0.0        0.0        0.0        0.0      1.4       0.3      25.0      28.6      32.1    422.57
    22     9  2024    84     4     285.2    16.5      0.0    0.0   15.5    1.0      1.9      0.0   -9.90      0.0      0.0    100      0.2      0.2   100      0.2     0.2     100     19.7    2.10     -9      0     -9      0      0    86.6    86.6      0     0.82      0.2      0.2      0.2   100    35.0    18.001    34.3    6.177    6.864     100       27.12    0.000    0.000     285.2    285.2    2.10   262.3     890.4     245.8     183.9      90.7      90.7      52.0    0.000     0.000     0.000     0.000     0.000    2.10     0.00    0.00      0   -9.90   -9.00       27.4       11.8       11.8       11.8       11.8       11.8       11.7       11.7       11.7       11.7       11.7       11.7        0.0        0.0        0.0        0.0        0.0        0.0        0.0        0.0        0.0        0.0        0.0        0.0     16.5       0.2      25.4      28.1      30.8    422.57
    23     9  2024    85     4     291.9    14.3      0.0    0.0   13.6    0.7      6.6      0.0   -9.90      0.0      0.0    100      0.2      0.2   100      0.3     0.3     100     19.5    2.12     -9      0     -9      0      0    84.8    84.8      0     0.79      0.2      0.2      0.2   100    35.0    18.277    35.8    6.550    7.278     100       28.44    0.000    0.000     291.9    291.9    2.12   271.0     898.0     247.9     185.9      91.7      91.7      52.5    0.000     0.000     0.000     0.000     0.000    2.12     0.00    0.00      0   -9.90   -9.00       26.5       12.7       13.1       12.5       12.2       12.1       12.0       11.9       11.9       11.8       11.8       11.8        0.0        0.0        0.0        0.0        0.0        0.0        0.0        0.0        0.0        0.0        0.0        0.0     14.3       0.3      25.1      28.7      32.3    422.57
    24     9  2024    86     4     283.1     2.9      0.0    0.0    2.9    0.0     11.5      0.0   -9.90      0.0      0.0    100      0.2      0.2   100      0.2     0.2     100     19.2    2.14     -9      0     -9      0      0    82.8    82.8      0     0.76      0.2      0.2      0.2   100    35.0    18.542    37.4    6.927    7.697     100       29.78    0.000    0.000     283.1    283.1    2.14   264.2     905.6     250.0     187.3      92.4      92.4      52.9    0.000     0.000     0.000     0.000     0.000    2.14     0.00    0.00      0   -9.90   -9.00       14.9       12.7       13.1       12.7       12.4       12.2       12.2       12.1       12.0       12.0       11.9       11.9        0.0        0.0        0.0        0.0        0.0        0.0        0.0        0.0        0.0        0.0        0.0        0.0      2.9       0.3      24.3      27.7      31.2    422.57
    25     9  2024    87     4     295.0    23.4      0.0    0.0   20.9    2.6      8.7      0.0   -9.90      0.0      0.0    100      0.2      0.2   100      0.2     0.2     100     19.3    2.16     -9      0     -9      0      0    80.5    80.5      0     0.72      0.2      0.2      0.2   100    35.0    18.795    38.9    7.307    8.119     100       31.11    0.000    0.000     295.0    295.0    2.16   278.3     913.2     252.1     188.9      93.3      93.3      53.4    0.000     0.000     0.000     0.000     0.000    2.16     0.00    0.00      0   -9.90   -9.00       33.1       12.1       12.1       12.1       12.0       12.0       11.9       11.9       11.9       11.9       11.8       11.8        0.0        0.0        0.0        0.0        0.0        0.0        0.0        0.0        0.0        0.0        0.0        0.0     23.4       0.3      24.6      28.3      31.9    422.57
[...]
    10    12  2025    -9     0     260.3     0.0      0.0    0.0    0.0    0.0      0.0      0.0   -9.90      0.4      0.1     22      0.0      0.0   100      0.4     0.1      22     17.3    2.28     -9     -9     -9      0     -9     0.0     0.0      0    -9.00      0.0      0.0      0.0   100    35.1    20.220    48.0    9.706   10.784     100       37.48    0.000    0.000     260.3    260.3    2.28   258.3     965.7     266.5     200.1      99.0      98.8      56.5    0.000     0.000     0.000     0.000     0.000    2.28     0.00    0.00      0   -9.90   -9.00        3.3       11.7       11.7       11.7       11.7       11.7       11.7       11.7       11.7       11.7       11.7       11.7        0.0        0.0        0.0        0.0        0.0        0.0        0.0        0.0        0.0        0.0        0.0        0.0      0.0       0.3      20.5      26.6      32.7    424.57
    11    12  2025    -9     0     260.3     0.0      0.0    0.0    0.0    0.0      0.0      0.0   -9.90      0.4      0.1     21      0.0      0.0   100      0.4     0.1      21     16.9    2.28     -9     -9     -9      0     -9     0.0     0.0      0    -9.00      0.0      0.0      0.0   100    35.1    20.220    48.0    9.706   10.784     100       37.48    0.000    0.000     260.3    260.3    2.28   258.2     965.7     266.5     200.1      98.9      98.8      56.5    0.000     0.000     0.000     0.000     0.000    2.28     0.00    0.00      0   -9.90   -9.00        3.2       11.7       11.7       11.7       11.7       11.7       11.7       11.7       11.7       11.7       11.7       11.7        0.0        0.0        0.0        0.0        0.0        0.0        0.0        0.0        0.0        0.0        0.0        0.0      0.0       0.3      19.8      25.9      32.0    424.57
    12    12  2025    -9     0     260.2     0.0      0.0    0.0    0.0    0.0      0.0      0.0   -9.90      0.4      0.1     21      0.0      0.0   100      0.4     0.1      21     15.9    2.28     -9     -9     -9      0     -9     0.0     0.0      0    -9.00      0.0      0.0      0.0   100    35.1    20.220    48.0    9.706   10.784     100       37.48    0.000    0.000     260.2    260.2    2.28   258.1     965.7     266.5     200.1      99.1      98.8      56.5    0.000     0.000     0.000     0.000     0.000    2.28     0.00    0.00      0   -9.90   -9.00        3.1       11.7       11.7       11.7       11.7       11.7       11.7       11.7       11.7       11.7       11.7       11.7        0.0        0.0        0.0        0.0        0.0        0.0        0.0        0.0        0.0        0.0        0.0        0.0      0.0       0.4      17.8      25.1      32.5    424.57
    13    12  2025    -9     0     260.1     0.0      0.0    0.0    0.0    0.0      0.0      0.0   -9.90      0.4      0.1     20      0.0      0.0   100      0.4     0.1      20     15.9    2.28     -9     -9     -9      0     -9     0.0     0.0      0    -9.00      0.0      0.0      0.0   100    35.1    20.220    48.0    9.706   10.784     100       37.48    0.000    0.000     260.1    260.1    2.28   258.1     965.7     266.5     200.1      98.8      98.8      56.5    0.000     0.000     0.000     0.000     0.000    2.28     0.00    0.00      0   -9.90   -9.00        3.1       11.7       11.7       11.7       11.7       11.7       11.7       11.7       11.7       11.7       11.7       11.7        0.0        0.0        0.0        0.0        0.0        0.0        0.0        0.0        0.0        0.0        0.0        0.0      0.0       0.3      18.0      23.9      29.8    424.57
    14    12  2025    -9     0     260.0     0.0      0.0    0.0    0.0    0.0      0.0      0.0   -9.90      0.3      0.1     20      0.0      0.0   100      0.3     0.1      20     13.6    2.28     -9     -9     -9      0     -9     0.0     0.0      0    -9.00      0.0      0.0      0.0   100    35.1    20.220    48.0    9.706   10.784     100       37.48    0.000    0.000     260.0    260.0    2.28   258.0     965.7     266.5     200.1      98.7      98.8      56.5    0.000     0.000     0.000     0.000     0.000    2.28     0.00    0.00      0   -9.90   -9.00        3.0       11.7       11.7       11.7       11.7       11.7       11.7       11.7       11.7       11.7       11.7       11.7        0.0        0.0        0.0        0.0        0.0        0.0        0.0        0.0        0.0        0.0        0.0        0.0      0.0       0.3      16.3      21.6      27.0    424.57
    15    12  2025    -9     0     260.0     0.0      0.0    0.0    0.0    0.0      0.0      0.0   -9.90      0.4      0.1     19      0.0      0.0   100      0.4     0.1      19     13.7    2.28     -9     -9     -9      0     -9     0.0     0.0      0    -9.00      0.0      0.0      0.0   100    35.1    20.220    48.0    9.706   10.784     100       37.48    0.000    0.000     260.0    260.0    2.28   257.9     965.7     266.5     200.1      98.9      98.8      56.5    0.000     0.000     0.000     0.000     0.000    2.28     0.00    0.00      0   -9.90   -9.00        2.9       11.7       11.7       11.7       11.7       11.7       11.7       11.7       11.7       11.7       11.7       11.7        0.0        0.0        0.0        0.0        0.0        0.0        0.0        0.0        0.0        0.0        0.0        0.0      0.0       0.3      14.6      21.7      28.9    424.57
    16    12  2025    -9     0     259.9     0.0      0.0    0.0    0.0    0.0      0.0      0.0   -9.90      0.4      0.1     19      0.0      0.0   100      0.4     0.1      19     15.6    2.28     -9     -9     -9      0     -9     0.0     0.0      0    -9.00      0.0      0.0      0.0   100    35.1    20.220    48.0    9.706   10.784     100       37.48    0.000    0.000     259.9    259.9    2.28   257.9     965.7     266.5     200.1      98.9      98.8      56.5    0.000     0.000     0.000     0.000     0.000    2.28     0.00    0.00      0   -9.90   -9.00        2.9       11.7       11.7       11.7       11.7       11.7       11.7       11.7       11.7       11.7       11.7       11.7        0.0        0.0        0.0        0.0        0.0        0.0        0.0        0.0        0.0        0.0        0.0        0.0      0.0       0.3      17.3      23.8      30.4    424.57
    17    12  2025    -9     0     259.8     0.0      0.0    0.0    0.0    0.0      0.0      0.0   -9.90      0.3      0.1     18      0.0      0.0   100      0.3     0.1      18     15.6    2.28     -9     -9     -9      0     -9     0.0     0.0      0    -9.00      0.0      0.0      0.0   100    35.1    20.220    48.0    9.706   10.784     100       37.48    0.000    0.000     259.8    259.8    2.28   257.8     965.7     266.5     200.1      98.8      98.8      56.5    0.000     0.000     0.000     0.000     0.000    2.28     0.00    0.00      0   -9.90   -9.00        2.8       11.7       11.7       11.7       11.7       11.7       11.7       11.7       11.7       11.7       11.7       11.7        0.0        0.0        0.0        0.0        0.0        0.0        0.0        0.0        0.0        0.0        0.0        0.0      0.0       0.3      18.2      23.6      29.0    424.57
    18    12  2025    -9     0     259.8     0.0      0.0    0.0    0.0    0.0      0.0      0.0   -9.90      0.3      0.1     18      0.0      0.0   100      0.3     0.1      18     14.7    2.28     -9     -9     -9      0     -9     0.0     0.0      0    -9.00      0.0      0.0      0.0   100    35.1    20.220    48.0    9.706   10.784     100       37.48    0.000    0.000     259.8    259.8    2.28   257.7     965.7     266.5     200.1      98.6      98.8      56.5    0.000     0.000     0.000     0.000     0.000    2.28     0.00    0.00      0   -9.90   -9.00        2.7       11.7       11.7       11.7       11.7       11.7       11.7       11.7       11.7       11.7       11.7       11.7        0.0        0.0        0.0        0.0        0.0        0.0        0.0        0.0        0.0        0.0        0.0        0.0      0.0       0.3      18.1      22.7      27.4    424.57
    19    12  2025    -9     0     259.7     0.0      0.0    0.0    0.0    0.0      0.0      0.0   -9.90      0.4      0.1     17      0.0      0.0   100      0.4     0.1      17     13.9    2.28     -9     -9     -9      0     -9     0.0     0.0      0    -9.00      0.0      0.0      0.0   100    35.1    20.220    48.0    9.706   10.784     100       37.48    0.000    0.000     259.7    259.7    2.28   257.7     965.7     266.5     200.1      98.9      98.8      56.5    0.000     0.000     0.000     0.000     0.000    2.28     0.00    0.00      0   -9.90   -9.00        2.7       11.7       11.7       11.7       11.7       11.7       11.7       11.7       11.7       11.7       11.7       11.7        0.0        0.0        0.0        0.0        0.0        0.0        0.0        0.0        0.0        0.0        0.0        0.0      0.0       0.3      15.0      21.9      28.8    424.57
    20    12  2025    -9     0     259.7     0.0      0.0    0.0    0.0    0.0      0.0      0.0   -9.90      0.4      0.1     17      0.0      0.0   100      0.4     0.1      17     14.9    2.28     -9     -9     -9      0     -9     0.0     0.0      0    -9.00      0.0      0.0      0.0   100    35.1    20.220    48.0    9.706   10.784     100       37.48    0.000    0.000     259.7    259.7    2.28   257.6     965.7     266.5     200.1      99.0      98.8      56.5    0.000     0.000     0.000     0.000     0.000    2.28     0.00    0.00      0   -9.90   -9.00        2.6       11.7       11.7       11.7       11.7       11.7       11.7       11.7       11.7       11.7       11.7       11.7        0.0        0.0        0.0        0.0        0.0        0.0        0.0        0.0        0.0        0.0        0.0        0.0      0.0       0.4      15.8      23.3      30.7    424.57
    21    12  2025    -9     0     259.6     0.0      0.0    0.0    0.0    0.0      0.0      0.0   -9.90      0.4      0.1     16      0.0      0.0   100      0.4     0.1      16     15.2    2.28     -9     -9     -9      0     -9     0.0     0.0      0    -9.00      0.0      0.0      0.0   100    35.1    20.220    48.0    9.706   10.784     100       37.48    0.000    0.000     259.6    259.6    2.28   257.6     965.7     266.5     200.1      99.0      98.8      56.5    0.000     0.000     0.000     0.000     0.000    2.28     0.00    0.00      0   -9.90   -9.00        2.6       11.7       11.7       11.7       11.7       11.7       11.7       11.7       11.7       11.7       11.7       11.7        0.0        0.0        0.0        0.0        0.0        0.0        0.0        0.0        0.0        0.0        0.0        0.0      0.0       0.4      16.3      24.0      31.6    424.57
    22    12  2025    -9     0     259.5     0.0      0.0    0.0    0.0    0.0      0.0      0.0   -9.90      0.4      0.1     16      0.0      0.0   100      0.4     0.1      16     15.5    2.28     -9     -9     -9      0     -9     0.0     0.0      0    -9.00      0.0      0.0      0.0   100    35.1    20.220    48.0    9.706   10.784     100       37.48    0.000    0.000     259.5    259.5    2.28   257.5     965.7     266.5     200.1      99.0      98.8      56.5    0.000     0.000     0.000     0.000     0.000    2.28     0.00    0.00      0   -9.90   -9.00        2.5       11.7       11.7       11.7       11.7       11.7       11.7       11.7       11.7       11.7       11.7       11.7        0.0        0.0        0.0        0.0        0.0        0.0        0.0        0.0        0.0        0.0        0.0        0.0      0.0       0.3      17.1      24.2      31.4    424.57
    23    12  2025    -9     0     259.5     0.0      0.0    0.0    0.0    0.0      0.0      0.0   -9.90      0.4      0.1     16      0.0      0.0   100      0.4     0.1      16     15.8    2.28     -9     -9     -9      0     -9     0.0     0.0      0    -9.00      0.0      0.0      0.0   100    35.1    20.220    48.0    9.706   10.784     100       37.48    0.000    0.000     259.5    259.5    2.28   257.4     965.7     266.5     200.1      98.9      98.8      56.5    0.000     0.000     0.000     0.000     0.000    2.28     0.00    0.00      0   -9.90   -9.00        2.4       11.7       11.7       11.7       11.7       11.7       11.7       11.7       11.7       11.7       11.7       11.7        0.0        0.0        0.0        0.0        0.0        0.0        0.0        0.0        0.0        0.0        0.0        0.0      0.0       0.3      17.6      24.3      31.0    424.57
    24    12  2025    -9     0     259.4     0.0      0.0    0.0    0.0    0.0      0.0      0.0   -9.90      0.4      0.1     15      0.0      0.0   100      0.4     0.1      15     16.1    2.28     -9     -9     -9      0     -9     0.0     0.0      0    -9.00      0.0      0.0      0.0   100    35.1    20.220    48.0    9.706   10.784     100       37.48    0.000    0.000     259.4    259.4    2.28   257.4     965.7     266.5     200.1      98.9      98.8      56.5    0.000     0.000     0.000     0.000     0.000    2.28     0.00    0.00      0   -9.90   -9.00        2.4       11.7       11.7       11.7       11.7       11.7       11.7       11.7       11.7       11.7       11.7       11.7        0.0        0.0        0.0        0.0        0.0        0.0        0.0        0.0        0.0        0.0        0.0        0.0      0.0       0.3      18.2      24.3      30.4    424.57
    25    12  2025    -9     0     259.4     0.0      0.0    0.0    0.0    0.0      0.0      0.0   -9.90      0.3      0.1     15      0.0      0.0   100      0.3     0.1      15     15.3    2.28     -9     -9     -9      0     -9     0.0     0.0      0    -9.00      0.0      0.0      0.0   100    35.1    20.220    48.0    9.706   10.784     100       37.48    0.000    0.000     259.4    259.4    2.28   257.3     965.7     266.5     200.1      98.8      98.8      56.5    0.000     0.000     0.000     0.000     0.000    2.28     0.00    0.00      0   -9.90   -9.00        2.3       11.7       11.7       11.7       11.7       11.7       11.7       11.7       11.7       11.7       11.7       11.7        0.0        0.0        0.0        0.0        0.0        0.0        0.0        0.0        0.0        0.0        0.0        0.0      0.0       0.3      17.8      23.3      28.8    424.57
    26    12  2025    -9     0     259.3     0.0      0.0    0.0    0.0    0.0      0.0      0.0   -9.90      0.4      0.1     15      0.0      0.0   100      0.4     0.1      15     15.4    2.28     -9     -9     -9      0     -9     0.0     0.0      0    -9.00      0.0      0.0      0.0   100    35.1    20.220    48.0    9.706   10.784     100       37.48    0.000    0.000     259.3    259.3    2.28   257.3     965.7     266.5     200.1      98.9      98.8      56.5    0.000     0.000     0.000     0.000     0.000    2.28     0.00    0.00      0   -9.90   -9.00        2.3       11.7       11.7       11.7       11.7       11.7       11.7       11.7       11.7       11.7       11.7       11.7        0.0        0.0        0.0        0.0        0.0        0.0        0.0        0.0        0.0        0.0        0.0        0.0      0.0       0.3      16.8      23.6      30.3    424.57
    27    12  2025    -9     0     259.3     0.0      0.0    0.0    0.0    0.0      0.0      0.0   -9.90      0.4      0.1     17      0.0      0.0   100      0.4     0.1      17     14.7    2.28     -9     -9     -9      0     -9     0.0     0.0      0    -9.00      0.0      0.0      0.0   100    35.1    20.220    48.0    9.706   10.784     100       37.48    0.000    0.000     259.3    259.3    2.28   257.2     965.7     266.5     200.1      99.0      98.8      56.5    0.000     0.000     0.000     0.000     0.000    2.28     0.00    0.00      0   -9.90   -9.00        2.2       11.7       11.7       11.7       11.7       11.7       11.7       11.7       11.7       11.7       11.7       11.7        0.0        0.0        0.0        0.0        0.0        0.0        0.0        0.0        0.0        0.0        0.0        0.0      0.0       0.4      15.4      23.3      31.1    424.57
    28    12  2025    -9     0     259.2     0.0      0.0    0.0    0.0    0.0      0.0      0.0   -9.90      0.4      0.1     14      0.0      0.0   100      0.4     0.1      14     14.9    2.28     -9     -9     -9      0     -9     0.0     0.0      0    -9.00      0.0      0.0      0.0   100    35.1    20.220    48.0    9.706   10.784     100       37.48    0.000    0.000     259.2    259.2    2.28   257.2     965.7     266.5     200.1      99.1      98.8      56.5    0.000     0.000     0.000     0.000     0.000    2.28     0.00    0.00      0   -9.90   -9.00        2.1       11.7       11.7       11.7       11.7       11.7       11.7       11.7       11.7       11.7       11.7       11.7        0.0        0.0        0.0        0.0        0.0        0.0        0.0        0.0        0.0        0.0        0.0        0.0      0.0       0.4      15.8      24.1      32.4    424.57
    29    12  2025    -9     0     259.1     0.0      0.0    0.0    0.0    0.0      0.0      0.0   -9.90      0.4      0.1     14      0.0      0.0   100      0.4     0.1      14     15.4    2.28     -9     -9     -9      0     -9     0.0     0.0      0    -9.00      0.0      0.0      0.0   100    35.1    20.220    48.0    9.706   10.784     100       37.48    0.000    0.000     259.1    259.1    2.28   257.1     965.7     266.5     200.1      99.2      98.8      56.5    0.000     0.000     0.000     0.000     0.000    2.28     0.00    0.00      0   -9.90   -9.00        2.1       11.7       11.7       11.7       11.7       11.7       11.7       11.7       11.7       11.7       11.7       11.7        0.0        0.0        0.0        0.0        0.0        0.0        0.0        0.0        0.0        0.0        0.0        0.0      0.0       0.4      16.8      25.3      33.8    424.57
    30    12  2025    -9     0     259.1     0.0      0.0    0.0    0.0    0.0      0.0      0.0   -9.90      0.4      0.1     13      0.0      0.0   100      0.4     0.1      13     16.5    2.28     -9     -9     -9      0     -9     0.0     0.0      0    -9.00      0.0      0.0      0.0   100    35.1    20.220    48.0    9.706   10.784     100       37.48    0.000    0.000     259.1    259.1    2.28   257.0     965.7     266.5     200.1      99.1      98.8      56.5    0.000     0.000     0.000     0.000     0.000    2.28     0.00    0.00      0   -9.90   -9.00        2.0       11.7       11.7       11.7       11.7       11.7       11.7       11.7       11.7       11.7       11.7       11.7        0.0        0.0        0.0        0.0        0.0        0.0        0.0        0.0        0.0        0.0        0.0        0.0      0.0       0.4      19.1      26.5      34.0    424.57
    31    12  2025    -9     0     259.0     0.0      0.0    0.0    0.0    0.0      0.0      0.0   -9.90      0.4      0.1     13      0.0      0.0   100      0.4     0.1      13     16.8    2.28     -9     -9     -9      0     -9     0.0     0.0      0    -9.00      0.0      0.0      0.0   100    35.1    20.220    48.0    9.706   10.784     100       37.48    0.000    0.000     259.0    259.0    2.28   257.0     965.7     266.5     200.1      99.2      98.8      56.5    0.000     0.000     0.000     0.000     0.000    2.28     0.00    0.00      0   -9.90   -9.00        2.0       11.7       11.7       11.7       11.7       11.7       11.7       11.7       11.7       11.7       11.7       11.7        0.0        0.0        0.0        0.0        0.0        0.0        0.0        0.0        0.0        0.0        0.0        0.0      0.0       0.4      19.5      27.2      34.8    424.57
