AquaCrop 7.1 (August 2023) - Output created on (date) : 16-01-2026   at (time) : 12:17:25

   Run:   1
   Day Month  Year   DAP Stage   WC(2.30)   Rain     Irri   Surf   Infilt   RO    Drain       CR    Zgwt       Ex       E     E/Ex     Trx       Tr  Tr/Trx    ETx      ET  ET/ETx      GD       Z     StExp  StSto  StSen StSalt StWeed   CC      CCw     StTr  Kc(Tr)     Trx       Tr      TrW  Tr/Trx   WP    Biomass     HI    Y(dry)  Y(fresh)  Brelative    WPet      Bin     Bout  WC(2.30) Wr(2.30)     Z       Wr    Wr(SAT)    Wr(FC)   Wr(exp)   Wr(sto)   Wr(sen)   Wr(PWP)    SaltIn    SaltOut   SaltUp   Salt(2.30)  SaltZ     Z       ECe    ECsw   StSalt  Zgwt    ECgw       WC01       WC 2       WC 3       WC 4       WC 5       WC 6       WC 7       WC 8       WC 9       WC10       WC11       WC12      ECe01      ECe 2      ECe 3      ECe 4      ECe 5      ECe 6      ECe 7      ECe 8      ECe 9      ECe10      ECe11      ECe12     Rain       ETo      Tmin      Tavg      Tmax      CO2
                                      mm      mm       mm     mm     mm     mm       mm       mm      m        mm       mm     %        mm       mm    %        mm      mm       %  degC-day     m       %      %      %      %      %      %       %       %       -        mm       mm       mm    %     g/m2    ton/ha      %    ton/ha   ton/ha       %       kg/m3   ton/ha   ton/ha      mm       mm       m       mm        mm        mm        mm        mm        mm         mm    ton/ha    ton/ha    ton/ha    ton/ha    ton/ha     m      dS/m    dS/m      %     m      dS/m       0.05       0.18       0.33       0.48       0.63       0.80       1.00       1.20       1.43       1.68       1.93       2.18       0.05       0.18       0.33       0.48       0.63       0.80       1.00       1.20       1.43       1.68       1.93       2.18       mm        mm     degC      degC      degC       ppm
     1     7  2011     1     1     264.8     5.8      0.0    0.0    5.8    0.0      0.0      0.0   -9.90     15.3      9.5     62      0.0      0.0   100     15.3     9.5      62     17.6    0.30     -9     -9     -9      0     -9     0.0     0.0      0    -9.00      0.0      0.0      0.0   100     0.0     0.000    -9.9    0.000    0.000      -9        0.00    0.000    0.000     264.8    264.8    0.30    30.8     125.1      34.6      30.7      21.2      15.5       6.9    0.000     0.000     0.000     0.000     0.000    0.30     0.00    0.00      0   -9.90   -9.00        7.9       11.7       11.7       11.7       11.7       11.7       11.7       11.7       11.7       11.7       11.7       11.7        0.0        0.0        0.0        0.0        0.0        0.0        0.0        0.0        0.0        0.0        0.0        0.0      5.8      13.9      21.2      27.4      33.7    391.85
     2     7  2011     2     1     262.3     6.7      0.0    0.0    6.7    0.0      0.0      0.0   -9.90     15.8      9.3     59      0.0      0.0   100     15.8     9.3      59     17.3    0.30     -9     -9     -9      0     -9     0.0     0.0      0    -9.00      0.0      0.0      0.0   100     0.0     0.000    -9.9    0.000    0.000      -9        0.00    0.000    0.000     262.3    262.3    0.30    28.3     125.1      34.6      30.7      21.5      15.5       6.9    0.000     0.000     0.000     0.000     0.000    0.30     0.00    0.00      0   -9.90   -9.00        5.3       11.7       11.7       11.7       11.7       11.7       11.7       11.7       11.7       11.7       11.7       11.7        0.0        0.0        0.0        0.0        0.0        0.0        0.0        0.0        0.0        0.0        0.0        0.0      6.7      14.3      20.6      27.3      34.0    391.85
     3     7  2011     3     1     259.2     4.1      0.0    0.0    4.1    0.0      0.0      0.0   -9.90     17.1      7.2     42      0.0      0.0   100     17.1     7.2      42     16.4    0.30     -9     -9     -9      0     -9     0.0     0.0      0    -9.00      0.0      0.0      0.0   100     0.0     0.000    -9.9    0.000    0.000      -9        0.00    0.000    0.000     259.2    259.2    0.30    25.2     125.1      34.6      30.7      22.2      15.5       6.9    0.000     0.000     0.000     0.000     0.000    0.30     0.00    0.00      0   -9.90   -9.00        2.1       11.7       11.7       11.7       11.7       11.7       11.7       11.7       11.7       11.7       11.7       11.7        0.0        0.0        0.0        0.0        0.0        0.0        0.0        0.0        0.0        0.0        0.0        0.0      4.1      15.5      18.8      26.8      34.8    391.85
     4     7  2011     4     1     258.6     5.8      0.0    0.0    5.8    0.0      0.0      0.0   -9.90     17.7      6.4     36      0.0      0.0   100     17.7     6.4      36     16.4    0.30     -9     -9     -9      0     -9     0.0     0.0      0    -9.00      0.0      0.0      0.0   100     0.0     0.000    -9.9    0.000    0.000      -9        0.00    0.000    0.000     258.6    258.6    0.30    24.6     125.1      34.6      30.7      22.6      15.5       6.9    0.000     0.000     0.000     0.000     0.000    0.30     0.00    0.00      0   -9.90   -9.00        1.6       11.7       11.7       11.7       11.7       11.7       11.7       11.7       11.7       11.7       11.7       11.7        0.0        0.0        0.0        0.0        0.0        0.0        0.0        0.0        0.0        0.0        0.0        0.0      5.8      16.1      18.8      27.2      35.6    391.85
     5     7  2011     5     1     257.4     3.1      0.0    0.0    3.1    0.0      0.0      0.0   -9.90     16.4      4.4     27      0.0      0.0   100     16.4     4.4      27     16.8    0.32     -9     -9     -9      0     -9     0.0     0.0      0    -9.00      0.0      0.0      0.0   100     0.0     0.000    -9.9    0.000    0.000      -9        0.00    0.000    0.000     257.4    257.4    0.32    25.7     133.5      36.9      32.8      23.3      16.5       7.4    0.000     0.000     0.000     0.000     0.000    0.32     0.00    0.00      0   -9.90   -9.00        1.2       11.1       11.7       11.7       11.7       11.7       11.7       11.7       11.7       11.7       11.7       11.7        0.0        0.0        0.0        0.0        0.0        0.0        0.0        0.0        0.0        0.0        0.0        0.0      3.1      14.9      19.6      26.9      34.2    391.85
     6     7  2011     6     1     256.2     1.4      0.0    0.0    1.4    0.0      0.0      0.0   -9.90     16.4      2.6     16      0.0      0.0   100     16.4     2.6      16     17.2    0.36     -9     -9     -9      0     -9     0.0     0.0      0    -9.00      0.0      0.0      0.0   100     0.0     0.000    -9.9    0.000    0.000      -9        0.00    0.000    0.000     256.2    256.2    0.36    29.3     150.6      41.6      37.0      26.3      18.7       8.4    0.000     0.000     0.000     0.000     0.000    0.36     0.00    0.00      0   -9.90   -9.00        1.2       10.4       11.7       11.7       11.7       11.7       11.7       11.7       11.7       11.7       11.7       11.7        0.0        0.0        0.0        0.0        0.0        0.0        0.0        0.0        0.0        0.0        0.0        0.0      1.4      14.9      20.4      27.5      34.6    391.85
     7     7  2011     7     2     260.2    11.6      1.5    0.0   11.6    0.0      0.0      0.0   -9.90     16.4      9.0     55      0.1      0.1   100     16.5     9.1      55     16.5    0.40     -9      0      0      0      0     0.4     0.4      0     0.01      0.1      0.1      0.1   100    34.3     0.003    -9.9    0.000    0.000     100        0.00    0.000    0.000     260.2    260.2    0.40    37.7     166.4      46.0      46.0      29.2      29.2       9.3    0.000     0.000     0.000     0.000     0.000    0.40     0.00    0.00      0   -9.90   -9.00        9.6        9.6        9.6       11.7       11.7       11.7       11.7       11.7       11.7       11.7       11.7       11.7        0.0        0.0        0.0        0.0        0.0        0.0        0.0        0.0        0.0        0.0        0.0        0.0     11.6      15.1      19.1      26.6      34.2    391.85
     8     7  2011     8     2     262.3    12.5      0.0    0.0   12.5    0.1      0.0      0.0   -9.90     16.1     10.3     64      0.1      0.1   100     16.3    10.4      64     17.4    0.43     -9      0      0      0      0     0.5     0.5      0     0.01      0.1      0.1      0.1   100    34.3     0.006    -9.9    0.000    0.000     100        0.00    0.000    0.000     262.3    262.3    0.43    43.8     181.2      50.1      50.1      31.6      31.6      10.2    0.000     0.000     0.000     0.000     0.000    0.43     0.00    0.00      0   -9.90   -9.00       11.6        9.6        9.6       11.7       11.7       11.7       11.7       11.7       11.7       11.7       11.7       11.7        0.0        0.0        0.0        0.0        0.0        0.0        0.0        0.0        0.0        0.0        0.0        0.0     12.5      14.8      20.7      27.7      34.6    391.85
     9     7  2011     9     2     258.9     0.5      2.9    0.0    0.5    0.0      0.0      0.0   -9.90     16.7      6.6     39      0.2      0.2   100     16.8     6.7      40     16.6    0.47      0      0      0      0      0     0.6     0.6      0     0.01      0.2      0.2      0.2   100    34.3     0.010    -9.9    0.000    0.000     100        0.00    0.000    0.000     258.9    258.9    0.47    45.1     195.4      54.0      54.0      34.6      34.6      11.0    0.000     0.000     0.000     0.000     0.000    0.47     0.00    0.00      0   -9.90   -9.00        9.6        9.6        9.6       10.8       11.7       11.7       11.7       11.7       11.7       11.7       11.7       11.7        0.0        0.0        0.0        0.0        0.0        0.0        0.0        0.0        0.0        0.0        0.0        0.0      0.5      15.3      19.2      27.0      34.7    391.85
    10     7  2011    10     2     257.4     1.0      4.1    0.0    1.0    0.0      0.0      0.0   -9.90     15.9      6.4     40      0.2      0.2   100     16.1     6.6      41     17.0    0.50      5      0      0      0      0     0.7     0.7      0     0.01      0.2      0.2      0.2   100    34.3     0.014    -9.9    0.000    0.000     100        0.00    0.000    0.000     257.4    257.4    0.50    47.5     209.1      57.8      57.8      36.4      36.4      11.9    0.000     0.000     0.000     0.000     0.000    0.50     0.00    0.00      0   -9.90   -9.00        9.5        9.5        9.6       10.0       11.7       11.7       11.7       11.7       11.7       11.7       11.7       11.7        0.0        0.0        0.0        0.0        0.0        0.0        0.0        0.0        0.0        0.0        0.0        0.0      1.0      14.7      19.9      27.0      34.0    391.85
    11     7  2011    11     2     257.4     4.2      5.2    0.0    4.2    0.0      0.0      0.0   -9.90     17.0      9.1     54      0.2      0.2   100     17.2     9.3      54     16.3    0.53      0      0      0      0      0     0.8     0.8      0     0.01      0.2      0.2      0.2   100    34.3     0.019    -9.9    0.000    0.000     100        0.00    0.000    0.000     257.4    257.4    0.53    50.7     222.3      61.4      61.4      39.8      39.8      12.6    0.000     0.000     0.000     0.000     0.000    0.53     0.00    0.00      0   -9.90   -9.00        9.6        9.6        9.7        9.7       11.7       11.7       11.7       11.7       11.7       11.7       11.7       11.7        0.0        0.0        0.0        0.0        0.0        0.0        0.0        0.0        0.0        0.0        0.0        0.0      4.2      15.7      18.7      26.8      34.9    391.85
    12     7  2011    12     2     256.2     5.2      2.9    0.0    5.2    0.0      0.0      0.0   -9.90     15.2      9.1     60      0.2      0.2   100     15.5     9.4      60     16.1    0.56      0      0      0      0      0     1.0     1.0      0     0.02      0.2      0.2      0.2   100    34.3     0.025    -9.9    0.000    0.000      99        0.00    0.000    0.000     256.2    256.2    0.56    52.8     235.2      65.0      65.0      40.2      40.2      13.4    0.000     0.000     0.000     0.000     0.000    0.56     0.00    0.00      0   -9.90   -9.00        9.4        9.4        9.5        9.5       11.6       11.7       11.7       11.7       11.7       11.7       11.7       11.7        0.0        0.0        0.0        0.0        0.0        0.0        0.0        0.0        0.0        0.0        0.0        0.0      5.2      14.1      18.1      25.2      32.3    391.85
    13     7  2011    13     2     255.2     6.4      2.0    0.0    6.4    0.0      0.0      0.0   -9.90     14.8      9.2     62      0.3      0.3   100     15.1     9.4      62     17.1    0.59      0      0      0      0      0     1.2     1.2      0     0.02      0.3      0.3      0.3   100    34.3     0.032    -9.9    0.000    0.000      99        0.00    0.000    0.000     255.2    255.2    0.59    55.8     247.7      68.4      68.4      42.0      42.0      14.1    0.000     0.000     0.000     0.000     0.000    0.59     0.00    0.00      0   -9.90   -9.00        9.4        9.4        9.5        9.5       11.0       11.7       11.7       11.7       11.7       11.7       11.7       11.7        0.0        0.0        0.0        0.0        0.0        0.0        0.0        0.0        0.0        0.0        0.0        0.0      6.4      13.8      20.2      26.5      32.9    391.85
    14     7  2011    14     2     254.0     7.6      0.6    0.0    7.6    0.0      0.0      0.0   -9.90     14.6      9.1     62      0.3      0.3   100     14.9     9.4      63     17.8    0.62      0      0      0      0      0     1.4     1.4      0     0.02      0.3      0.3      0.3   100    34.3     0.041    -9.9    0.000    0.000      99        0.00    0.000    0.000     254.0    254.0    0.62    58.4     259.9      71.8      71.8      43.8      43.8      14.8    0.000     0.000     0.000     0.000     0.000    0.62     0.00    0.00      0   -9.90   -9.00        9.4        9.4        9.4        9.4       10.3       11.7       11.7       11.7       11.7       11.7       11.7       11.7        0.0        0.0        0.0        0.0        0.0        0.0        0.0        0.0        0.0        0.0        0.0        0.0      7.6      13.6      21.6      27.5      33.4    391.85
    15     7  2011    15     2     254.0     0.4      6.0    0.0    0.4    0.0      0.0      0.0   -9.90     15.8      5.9     38      0.4      0.4   100     16.2     6.4      39     16.8    0.65     13      0      0      0      0     1.6     1.6      0     0.03      0.4      0.4      0.4   100    34.3     0.050    -9.9    0.000    0.000      99        0.00    0.000    0.000     254.0    254.0    0.65    61.5     271.9      75.1      75.1      47.5      47.5      15.6    0.000     0.000     0.000     0.000     0.000    0.65     0.00    0.00      0   -9.90   -9.00        9.5        9.5        9.6        9.6        9.8       11.7       11.7       11.7       11.7       11.7       11.7       11.7        0.0        0.0        0.0        0.0        0.0        0.0        0.0        0.0        0.0        0.0        0.0        0.0      0.4      14.8      19.5      26.7      34.0    391.85
    16     7  2011    16     2     254.1     6.0      3.8    0.0    6.0    0.0      0.0      0.0   -9.90     16.3      9.3     57      0.5      0.5   100     16.8     9.8      58     16.6    0.67      0      0      0      0      0     1.9     1.9      0     0.03      0.5      0.5      0.5   100    34.3     0.062    -9.9    0.000    0.000      99        0.00    0.000    0.000     254.1    254.1    0.67    64.4     283.6      78.3      78.3      50.3      50.3      16.2    0.000     0.000     0.000     0.000     0.000    0.67     0.00    0.00      0   -9.90   -9.00        9.6        9.6        9.6        9.6        9.7       11.7       11.7       11.7       11.7       11.7       11.7       11.7        0.0        0.0        0.0        0.0        0.0        0.0        0.0        0.0        0.0        0.0        0.0        0.0      6.0      15.3      19.1      26.9      34.6    391.85
    17     7  2011    17     2     252.9     3.9      4.0    0.0    3.9    0.0      0.0      0.0   -9.90     14.7      8.5     58      0.5      0.5   100     15.2     9.0      59     17.1    0.70      0      0      0      0      0     2.2     2.2      0     0.04      0.5      0.5      0.5   100    34.3     0.075    -9.9    0.000    0.000      98        0.00    0.000    0.000     252.9    252.9    0.70    65.9     295.2      81.5      81.5      50.2      50.2      16.9    0.000     0.000     0.000     0.000     0.000    0.70     0.00    0.00      0   -9.90   -9.00        9.4        9.4        9.5        9.5        9.5       11.7       11.7       11.7       11.7       11.7       11.7       11.7        0.0        0.0        0.0        0.0        0.0        0.0        0.0        0.0        0.0        0.0        0.0        0.0      3.9      13.9      20.2      26.6      33.0    391.85
    18     7  2011    18     2     251.6     6.8      1.2    0.0    6.8    0.0      0.0      0.0   -9.90     13.6      8.8     65      0.6      0.6   100     14.2     9.4      66     17.1    0.73      0      0      0      0      0     2.6     2.6      0     0.05      0.6      0.6      0.6   100    34.3     0.091    -9.9    0.000    0.000      98        0.00    0.000    0.000     251.6    251.6    0.73    68.2     306.5      84.6      84.6      50.7      50.7      17.6    0.000     0.000     0.000     0.000     0.000    0.73     0.00    0.00      0   -9.90   -9.00        9.3        9.3        9.4        9.4        9.4       11.4       11.7       11.7       11.7       11.7       11.7       11.7        0.0        0.0        0.0        0.0        0.0        0.0        0.0        0.0        0.0        0.0        0.0        0.0      6.8      12.9      20.3      26.0      31.7    391.85
    19     7  2011    19     2     251.6     5.7      4.2    0.0    5.7    0.0      0.0      0.0   -9.90     15.0      9.1     61      0.8      0.8   100     15.7     9.9      63     17.1    0.75      0      0      0      0      0     3.1     3.1      0     0.05      0.8      0.8      0.8   100    34.3     0.109    -9.9    0.000    0.000      98        0.00    0.000    0.000     251.6    251.6    0.75    72.0     317.7      87.7      87.7      54.8      54.8      18.3    0.000     0.000     0.000     0.000     0.000    0.75     0.00    0.00      0   -9.90   -9.00        9.5        9.5        9.5        9.5        9.5       10.9       11.7       11.7       11.7       11.7       11.7       11.7        0.0        0.0        0.0        0.0        0.0        0.0        0.0        0.0        0.0        0.0        0.0        0.0      5.7      14.3      20.1      26.9      33.6    391.85
    20     7  2011    20     2     250.9     1.5      5.6    0.0    1.5    0.0      0.0      0.0   -9.90     15.3      6.9     45      0.9      0.9   100     16.2     7.8      48     16.8    0.78      3      0      0      0      0     3.6     3.6      0     0.06      0.9      0.9      0.9   100    34.3     0.131    -9.9    0.000    0.000      98        0.00    0.000    0.000     250.9    250.9    0.78    74.7     328.7      90.8      90.8      57.5      57.5      18.9    0.000     0.000     0.000     0.000     0.000    0.78     0.00    0.00      0   -9.90   -9.00        9.5        9.5        9.6        9.6        9.6       10.3       11.7       11.7       11.7       11.7       11.7       11.7        0.0        0.0        0.0        0.0        0.0        0.0        0.0        0.0        0.0        0.0        0.0        0.0      1.5      14.8      19.7      26.9      34.1    391.85
    21     7  2011    21     2     250.3     8.6      1.4    0.0    8.6    0.0      0.0      0.0   -9.90     15.3      9.5     62      1.1      1.1   100     16.4    10.6      65     17.1    0.81      0      0      0      0      0     4.2     4.2      0     0.07      1.1      1.1      1.1   100    34.3     0.157    -9.9    0.000    0.000      98        0.00    0.000    0.000     250.3    250.3    0.81    77.1     339.6      93.8      93.8      59.7      59.7      19.5    0.000     0.000     0.000     0.000     0.000    0.81     0.00    0.00      0   -9.90   -9.00        9.5        9.5        9.6        9.6        9.6        9.9       11.7       11.7       11.7       11.7       11.7       11.7        0.0        0.0        0.0        0.0        0.0        0.0        0.0        0.0        0.0        0.0        0.0        0.0      8.6      15.0      20.1      27.4      34.6    391.85
    22     7  2011    22     2     250.1     2.1      6.2    0.0    2.1    0.0      0.0      0.0   -9.90     15.4      7.2     47      1.3      1.3   100     16.7     8.5      51     16.9    0.83      0      0      0      0      0     5.0     5.0      0     0.09      1.3      1.3      1.3   100    34.3     0.186    -9.9    0.000    0.000      97        0.00    0.000    0.000     250.1    250.1    0.83    79.6     350.3      96.7      96.7      62.1      62.1      20.2    0.000     0.000     0.000     0.000     0.000    0.83     0.00    0.00      0   -9.90   -9.00        9.6        9.6        9.6        9.6        9.6        9.7       11.7       11.7       11.7       11.7       11.7       11.7        0.0        0.0        0.0        0.0        0.0        0.0        0.0        0.0        0.0        0.0        0.0        0.0      2.1      15.3      19.7      27.3      34.8    391.85
    23     7  2011    23     2     249.1     2.0      5.4    0.0    2.0    0.0      0.0      0.0   -9.90     14.3      6.9     48      1.5      1.5   100     15.7     8.3      53     17.1    0.86      0      0      0      0      0     5.9     5.9      0     0.10      1.5      1.5      1.5   100    34.3     0.222    -9.9    0.000    0.000      97        0.00    0.000    0.000     249.1    249.1    0.86    81.1     360.9      99.7      99.7      62.3      62.3      20.8    0.000     0.000     0.000     0.000     0.000    0.86     0.00    0.00      0   -9.90   -9.00        9.5        9.5        9.5        9.5        9.5        9.6       11.7       11.7       11.7       11.7       11.7       11.7        0.0        0.0        0.0        0.0        0.0        0.0        0.0        0.0        0.0        0.0        0.0        0.0      2.0      14.4      20.2      27.0      33.8    391.85
    24     7  2011    24     2     248.6     8.0      2.0    0.0    8.0    0.0      0.0      0.0   -9.90     13.6      8.8     65      1.7      1.7   100     15.3    10.5      69     17.4    0.88      0      0      0      0      0     7.0     7.0      0     0.12      1.7      1.7      1.7   100    34.3     0.263    -9.9    0.000    0.000      97        0.00    0.000    0.000     248.6    248.6    0.88    83.0     371.4     102.5     102.5      63.4      63.4      21.4    0.000     0.000     0.000     0.000     0.000    0.88     0.00    0.00      0   -9.90   -9.00        9.4        9.4        9.5        9.5        9.5        9.5       11.7       11.7       11.7       11.7       11.7       11.7        0.0        0.0        0.0        0.0        0.0        0.0        0.0        0.0        0.0        0.0        0.0        0.0      8.0      13.9      20.9      27.2      33.5    391.85
    25     7  2011    25     2     250.1     0.8      9.1    0.0    0.8    0.0      0.0      0.0   -9.90     15.0      6.2     41      2.2      2.2   100     17.1     8.4      49     16.9    0.91      9      0      0      0      0     8.1     8.1      0     0.14      2.2      2.2      2.2   100    34.3     0.310    -9.9    0.000    0.000      97        0.00    0.000    0.000     250.1    250.1    0.91    87.1     381.7     105.4     105.4      68.5      68.5      22.0    0.000     0.000     0.000     0.000     0.000    0.91     0.00    0.00      0   -9.90   -9.00        9.6        9.6        9.7        9.7        9.7        9.7       11.6       11.7       11.7       11.7       11.7       11.7        0.0        0.0        0.0        0.0        0.0        0.0        0.0        0.0        0.0        0.0        0.0        0.0      0.8      15.7      19.8      27.6      35.5    391.85
    26     7  2011    26     2     248.4     4.4      4.6    0.0    4.4    0.0      0.0      0.0   -9.90     13.5      8.3     62      2.4      2.4   100     15.9    10.7      67     16.2    0.93      0      0      0      0      0     9.5     9.5      0     0.16      2.4      2.4      2.4   100    34.3     0.366    -9.9    0.000    0.000      97        0.00    0.000    0.000     248.4    248.4    0.93    88.7     392.0     108.2     108.2      68.1      68.1      22.6    0.000     0.000     0.000     0.000     0.000    0.93     0.00    0.00      0   -9.90   -9.00        9.5        9.5        9.5        9.5        9.5        9.5       11.3       11.7       11.7       11.7       11.7       11.7        0.0        0.0        0.0        0.0        0.0        0.0        0.0        0.0        0.0        0.0        0.0        0.0      4.4      14.6      18.4      25.8      33.1    391.85
    27     7  2011    27     2     245.9     6.7      1.4    0.0    6.7    0.0      0.0      0.0   -9.90     11.7      8.2     70      2.5      2.5   100     14.2    10.7      75     17.4    0.95      0      0      0      0      0    11.3    11.3      0     0.19      2.5      2.5      2.5   100    34.3     0.431    -9.9    0.000    0.000      96        0.00    0.000    0.000     245.9    245.9    0.95    89.6     402.2     111.0     111.0      66.7      66.7      23.2    0.000     0.000     0.000     0.000     0.000    0.95     0.00    0.00      0   -9.90   -9.00        9.3        9.3        9.4        9.4        9.4        9.4       10.8       11.7       11.7       11.7       11.7       11.7        0.0        0.0        0.0        0.0        0.0        0.0        0.0        0.0        0.0        0.0        0.0        0.0      6.7      13.0      20.9      26.5      32.2    391.85
    28     7  2011    28     2     246.6     2.3      8.5    0.0    2.3    0.0      0.0      0.0   -9.90     12.8      6.8     53      3.3      3.3   100     16.0    10.1      63     17.2    0.98      0      0      0      0      0    13.3    13.3      0     0.22      3.3      3.3      3.3   100    34.3     0.506    -9.9    0.000    0.000      96        0.00    0.000    0.000     246.6    246.6    0.98    93.5     412.2     113.8     113.8      72.0      72.0      23.8    0.000     0.000     0.000     0.000     0.000    0.98     0.00    0.00      0   -9.90   -9.00        9.5        9.5        9.6        9.6        9.6        9.6       10.3       11.7       11.7       11.7       11.7       11.7        0.0        0.0        0.0        0.0        0.0        0.0        0.0        0.0        0.0        0.0        0.0        0.0      2.3      14.8      20.3      27.3      34.4    391.85
    29     7  2011    29     2     243.7     3.9      3.8    0.0    3.9    0.0      0.0      0.0   -9.90     10.6      7.4     70      3.3      3.3   100     13.8    10.6      77     17.4    1.00      0      0      0      0      0    15.7    15.7      0     0.26      3.3      3.3      3.3   100    34.3     0.594    -9.9    0.000    0.000      96        0.00    0.000    0.000     243.7    243.7    1.00    93.5     422.2     116.6     116.6      69.5      69.5      24.4    0.000     0.000     0.000     0.000     0.000    1.00     0.00    0.00      0   -9.90   -9.00        9.3        9.3        9.3        9.3        9.3        9.3        9.8       11.7       11.7       11.7       11.7       11.7        0.0        0.0        0.0        0.0        0.0        0.0        0.0        0.0        0.0        0.0        0.0        0.0      3.9      12.7      20.7      26.2      31.7    391.85
    30     7  2011    30     2     245.8     1.0     11.2    0.0    1.0    0.0      0.0      0.0   -9.90     12.0      5.6     47      4.5      4.5   100     16.5    10.1      61     17.5    1.02      8      0      0      0      0    18.2    18.2      0     0.29      4.5      4.5      4.5   100    34.3     0.695    -9.9    0.000    0.000      96        0.00    0.000    0.000     245.8    245.8    1.02    98.0     432.0     119.3     119.3      76.6      76.6      25.0    0.000     0.000     0.000     0.000     0.000    1.02     0.00    0.00      0   -9.90   -9.00        9.6        9.6        9.6        9.6        9.6        9.6        9.7       11.7       11.7       11.7       11.7       11.7        0.0        0.0        0.0        0.0        0.0        0.0        0.0        0.0        0.0        0.0        0.0        0.0      1.0      15.2      21.1      28.3      35.4    391.85
    31     7  2011    31     2     243.5     1.7      6.1    0.0    1.7    0.0      0.0      0.0   -9.90      9.8      5.6     57      4.5      4.5   100     14.3    10.1      71     17.2    1.05      1      0      0      0      0    21.4    21.4      0     0.34      4.5      4.5      4.5   100    34.3     0.812    -9.9    0.000    0.000      96        0.00    0.000    0.000     243.5    243.5    1.05    98.0     441.8     122.0     122.0      73.9      73.9      25.6    0.000     0.000     0.000     0.000     0.000    1.05     0.00    0.00      0   -9.90   -9.00        9.4        9.4        9.4        9.4        9.4        9.4        9.5       11.7       11.7       11.7       11.7       11.7        0.0        0.0        0.0        0.0        0.0        0.0        0.0        0.0        0.0        0.0        0.0        0.0      1.7      13.2      20.3      26.2      32.2    391.85
     1     8  2011    32     2     244.6     1.7     10.8    0.0    1.7    0.0      0.0      0.0   -9.90      9.9      5.7     57      5.6      5.6   100     15.5    11.3      73     16.8    1.07      3      0      0      0      0    25.2    25.2      0     0.39      5.6      5.6      5.6   100    34.3     0.945    -9.9    0.000    0.000      96        0.00    0.000    0.000     244.6    244.6    1.07   101.4     451.5     124.7     124.7      78.1      78.1      26.1    0.000     0.000     0.000     0.000     0.000    1.07     0.00    0.00      0   -9.90   -9.00        9.5        9.5        9.5        9.5        9.5        9.5        9.5       11.7       11.7       11.7       11.7       11.7        0.0        0.0        0.0        0.0        0.0        0.0        0.0        0.0        0.0        0.0        0.0        0.0      1.7      14.4      19.6      26.5      33.4    391.85
     2     8  2011    33     2     244.5     2.3     10.0    0.0    2.3    0.0      0.0      0.0   -9.90      9.0      6.0     67      6.4      6.4   100     15.4    12.4      81     17.8    1.09      0      0      0      0      0    29.7    29.7      0     0.45      6.4      6.4      6.4   100    34.3     1.099    -9.9    0.000    0.000      95        0.00    0.000    0.000     244.5    244.5    1.09   103.4     461.2     127.3     127.3      79.6      79.6      26.7    0.000     0.000     0.000     0.000     0.000    1.09     0.00    0.00      0   -9.90   -9.00        9.5        9.5        9.5        9.5        9.5        9.5        9.5       11.7       11.7       11.7       11.7       11.7        0.0        0.0        0.0        0.0        0.0        0.0        0.0        0.0        0.0        0.0        0.0        0.0      2.3      14.3      21.5      27.9      34.4    391.85
     3     8  2011    34     2     245.5     1.8     12.5    0.0    1.8    0.0      0.0      0.0   -9.90      8.6      5.5     64      7.9      7.9   100     16.5    13.4      81     16.6    1.12      2      0      0      0      0    34.9    34.9      0     0.51      7.9      7.9      7.9   100    34.3     1.275    -9.9    0.000    0.000      95        0.00    0.000    0.000     245.5    245.5    1.12   107.2     470.7     130.0     130.0      83.8      83.8      27.3    0.000     0.000     0.000     0.000     0.000    1.12     0.00    0.00      0   -9.90   -9.00        9.6        9.6        9.6        9.6        9.6        9.6        9.6       11.5       11.7       11.7       11.7       11.7        0.0        0.0        0.0        0.0        0.0        0.0        0.0        0.0        0.0        0.0        0.0        0.0      1.8      15.4      19.3      27.0      34.7    391.85
     4     8  2011    35     2     244.7    14.2      0.0    0.0   14.0    0.2      0.0      0.0   -9.90      6.9      6.4     92      8.3      8.3   100     15.3    14.7      96     17.2    1.14      0      0      0      0      0    41.2    41.2      0     0.58      8.3      8.3      8.3   100    34.3     1.475    -9.9    0.000    0.000      95        0.00    0.000    0.000     244.7    244.7    1.14   109.0     480.2     132.6     132.6      82.8      82.8      27.8    0.000     0.000     0.000     0.000     0.000    1.14     0.00    0.00      0   -9.90   -9.00       14.5        6.7        8.7        9.6        9.6        9.6        9.6       11.5       11.7       11.7       11.7       11.7        0.0        0.0        0.0        0.0        0.0        0.0        0.0        0.0        0.0        0.0        0.0        0.0     14.2      14.3      20.4      27.1      33.7    391.85
     5     8  2011    36     2     241.9     3.1      7.7    0.0    3.1    0.0      0.0      0.0   -9.90      5.4      4.8     89      8.9      8.9   100     14.3    13.7      96     17.0    1.16      0      0      0      0      0    48.5    48.5      0     0.66      8.9      8.9      8.9   100    34.3     1.702    -9.9    0.000    0.000      95        0.00    0.000    0.000     241.9    241.9    1.16   109.6     489.6     135.2     135.2      82.3      82.3      28.4    0.000     0.000     0.000     0.000     0.000    1.16     0.00    0.00      0   -9.90   -9.00        9.4        9.4        9.4        9.4        9.4        9.4        9.4       10.9       11.7       11.7       11.7       11.7        0.0        0.0        0.0        0.0        0.0        0.0        0.0        0.0        0.0        0.0        0.0        0.0      3.1      13.4      20.1      26.2      32.3    391.85
     6     8  2011    37     2     242.2     0.3     13.7    0.0    0.3    0.0      0.0      0.0   -9.90      5.0      3.2     64     10.5     10.5   100     15.5    13.7      88     17.0    1.18     14      0      0      0      0    54.6    54.6      0     0.72     10.5     10.5     10.5   100    34.3     1.949    -9.9    0.000    0.000      95        0.00    0.000    0.000     242.2    242.2    1.18   113.0     499.0     137.8     137.8      86.9      86.9      28.9    0.000     0.000     0.000     0.000     0.000    1.18     0.00    0.00      0   -9.90   -9.00        9.5        9.5        9.5        9.5        9.5        9.5        9.5       10.4       11.7       11.7       11.7       11.7        0.0        0.0        0.0        0.0        0.0        0.0        0.0        0.0        0.0        0.0        0.0        0.0      0.3      14.6      19.9      26.9      33.9    391.85
     7     8  2011    38     2     240.8     7.2      6.4    0.0    7.2    0.0      0.0      0.0   -9.90      4.0      4.0    100     11.0     11.0   100     15.0    15.0     100     17.4    1.20      0      0      0      0      0    60.8    60.8      0     0.78     11.0     11.0     11.0   100    34.3     2.215    -9.9    0.000    0.000      95        0.00    0.000    0.000     240.8    240.8    1.20   114.3     508.3     140.3     140.3      87.3      87.3      29.5    0.000     0.000     0.000     0.000     0.000    1.20     0.00    0.00      0   -9.90   -9.00        9.5        9.5        9.5        9.5        9.5        9.5        9.5        9.9       11.7       11.7       11.7       11.7        0.0        0.0        0.0        0.0        0.0        0.0        0.0        0.0        0.0        0.0        0.0        0.0      7.2      14.2      20.9      27.3      33.8    391.85
     8     8  2011    39     2     241.7     3.5     13.6    0.0    3.5    0.0      0.0      0.0   -9.90      3.6      3.6    100     12.5     12.5   100     16.1    16.1     100     16.1    1.23      0      0      0      0      0    66.0    66.0      0     0.82     12.5     12.5     12.5   100    34.3     2.496    -9.9    0.000    0.000      95        0.00    0.000    0.000     241.7    241.7    1.23   117.5     517.5     142.9     142.9      91.8      91.8      30.0    0.000     0.000     0.000     0.000     0.000    1.23     0.00    0.00      0   -9.90   -9.00        9.6        9.6        9.6        9.6        9.6        9.6        9.6        9.7       11.7       11.7       11.7       11.7        0.0        0.0        0.0        0.0        0.0        0.0        0.0        0.0        0.0        0.0        0.0        0.0      3.5      15.3      18.3      26.2      34.1    391.85
     9     8  2011    40     2     240.8     3.0     11.5    0.0    3.0    0.0      0.0      0.0   -9.90      2.9      2.9    100     12.6     12.6   100     15.5    15.5     100     16.5    1.25      0      0      0      0      0    70.5    70.5      0     0.86     12.6     12.6     12.6   100    34.3     2.790    -9.9    0.000    0.000      96        0.00    0.000    0.000     240.8    240.8    1.25   118.7     526.7     145.4     145.4      91.9      91.9      30.6    0.000     0.000     0.000     0.000     0.000    1.25     0.00    0.00      0   -9.90   -9.00        9.5        9.5        9.6        9.6        9.6        9.6        9.6        9.6       11.7       11.7       11.7       11.7        0.0        0.0        0.0        0.0        0.0        0.0        0.0        0.0        0.0        0.0        0.0        0.0      3.0      14.7      19.0      26.2      33.5    391.85
    10     8  2011    41     2     239.9     8.9      5.0    0.0    8.9    0.0      0.0      0.0   -9.90      2.3      2.3    100     12.4     12.4   100     14.8    14.8     100     16.9    1.27      0      0      0      0      0    74.2    74.2      0     0.89     12.4     12.4     12.4   100    34.3     3.093    -9.9    0.000    0.000      96        0.00    0.000    0.000     239.9    239.9    1.27   119.9     535.8     147.9     147.9      91.8      91.8      31.1    0.000     0.000     0.000     0.000     0.000    1.27     0.00    0.00      0   -9.90   -9.00        9.4        9.4        9.5        9.5        9.5        9.5        9.5        9.5       11.7       11.7       11.7       11.7        0.0        0.0        0.0        0.0        0.0        0.0        0.0        0.0        0.0        0.0        0.0        0.0      8.9      14.1      19.8      26.5      33.1    391.85
    11     8  2011    42     2     241.7     4.2     13.9    0.0    4.2    0.0      0.0      0.0   -9.90      2.2      2.2    100     14.0     14.0   100     16.2    16.2     100     16.6    1.29      0      0      0      0      0    77.4    77.4      0     0.91     14.0     14.0     14.0   100    34.3     3.405    -9.9    0.000    0.000      96        0.00    0.000    0.000     241.7    241.7    1.29   123.7     544.9     150.4     150.4      97.1      97.1      31.6    0.000     0.000     0.000     0.000     0.000    1.29     0.00    0.00      0   -9.90   -9.00        9.6        9.6        9.6        9.6        9.6        9.6        9.6        9.6       11.7       11.7       11.7       11.7        0.0        0.0        0.0        0.0        0.0        0.0        0.0        0.0        0.0        0.0        0.0        0.0      4.2      15.4      19.3      27.0      34.8    391.85
    12     8  2011    43     2     241.3     9.6      6.0    0.0    9.5    0.0      0.0      0.0   -9.90      1.8      1.8    100     14.2     14.2   100     16.0    16.0     100     16.1    1.31      0      0      0      0      0    80.1    80.1      0     0.93     14.2     14.2     14.2   100    34.3     3.724    -9.9    0.000    0.000      96        0.00    0.000    0.000     241.3    241.3    1.31   125.8     553.9     152.9     152.9      98.3      98.3      32.2    0.000     0.000     0.000     0.000     0.000    1.31     0.00    0.00      0   -9.90   -9.00        9.6        9.6        9.6        9.6        9.6        9.6        9.6        9.6       11.6       11.7       11.7       11.7        0.0        0.0        0.0        0.0        0.0        0.0        0.0        0.0        0.0        0.0        0.0        0.0      9.6      15.3      18.3      26.2      34.1    391.85
    13     8  2011    44     2     239.1     6.5      6.1    0.0    6.5    0.0      0.0      0.0   -9.90      1.5      1.5    100     13.4     13.4   100     14.8    14.8     100     16.8    1.33      0      0      0      0      0    82.4    82.4      0     0.95     13.4     13.4     13.4   100    34.3     4.048    -9.9    0.000    0.000      97        0.00    0.000    0.000     239.1    239.1    1.33   126.6     562.8     155.4     155.4      96.7      96.7      32.7    0.000     0.000     0.000     0.000     0.000    1.33     0.00    0.00      0   -9.90   -9.00        9.5        9.5        9.5        9.5        9.5        9.5        9.5        9.5       11.3       11.7       11.7       11.7        0.0        0.0        0.0        0.0        0.0        0.0        0.0        0.0        0.0        0.0        0.0        0.0      6.5      14.2      19.7      26.4      33.2    391.85
    14     8  2011    45     2     237.8     3.3     10.2    0.0    3.3    0.0      0.0      0.0   -9.90      1.2      1.2    100     13.4     13.4   100     14.7    14.7     100     17.0    1.35      0      0      0      0      0    84.4    84.4      0     0.96     13.4     13.4     13.4   100    34.3     4.377    -9.9    0.000    0.000      97        0.00    0.000    0.000     237.8    237.8    1.35   128.6     571.7     157.8     157.8      97.8      97.8      33.2    0.000     0.000     0.000     0.000     0.000    1.35     0.00    0.00      0   -9.90   -9.00        9.4        9.4        9.5        9.5        9.5        9.5        9.5        9.5       10.9       11.7       11.7       11.7        0.0        0.0        0.0        0.0        0.0        0.0        0.0        0.0        0.0        0.0        0.0        0.0      3.3      14.0      20.0      26.6      33.1    391.85
    15     8  2011    46     2     237.7     1.6     13.5    0.0    1.6    0.0      0.0      0.0   -9.90      1.1      1.1    100     14.2     14.2   100     15.3    15.3     100     17.6    1.37      3      0      0      0      0    85.9    85.9      0     0.97     14.2     14.2     14.2   100    34.3     4.710    -9.9    0.000    0.000      97        0.00    0.000    0.000     237.7    237.7    1.37   131.4     580.6     160.3     160.3     101.1     101.1      33.8    0.000     0.000     0.000     0.000     0.000    1.37     0.00    0.00      0   -9.90   -9.00        9.5        9.5        9.5        9.5        9.5        9.5        9.5        9.5       10.5       11.7       11.7       11.7        0.0        0.0        0.0        0.0        0.0        0.0        0.0        0.0        0.0        0.0        0.0        0.0      1.6      14.6      21.2      27.9      34.7    391.85
    16     8  2011    47     2     236.4     4.7      9.2    0.0    4.7    0.0      0.0      0.0   -9.90      1.0      1.0    100     14.1     14.1   100     15.1    15.1     100     16.6    1.40      0      0      0      0      0    87.3    87.3      0     0.98     14.1     14.1     14.1   100    34.3     5.046    -9.9    0.000    0.000      97        0.00    0.000    0.000     236.4    236.4    1.40   133.0     589.4     162.7     162.7     102.1     102.1      34.3    0.000     0.000     0.000     0.000     0.000    1.40     0.00    0.00      0   -9.90   -9.00        9.5        9.5        9.5        9.5        9.5        9.5        9.5        9.5       10.1       11.7       11.7       11.7        0.0        0.0        0.0        0.0        0.0        0.0        0.0        0.0        0.0        0.0        0.0        0.0      4.7      14.4      19.1      26.2      33.3    391.85
    17     8  2011    48     2     236.9    13.5      3.0    0.0   13.4    0.1      0.0      0.0   -9.90      0.9      0.9    100     15.0     15.0   100     15.9    15.9     100     17.2    1.42      0      0      0      0      0    88.5    88.5      0     0.99     15.0     15.0     15.0   100    34.3     5.385    -9.9    0.000    0.000      97        0.00    0.000    0.000     236.9    236.9    1.42   135.9     598.2     165.1     165.1     105.9     105.9      34.8    0.000     0.000     0.000     0.000     0.000    1.42     0.00    0.00      0   -9.90   -9.00        9.6        9.6        9.6        9.6        9.6        9.6        9.6        9.6        9.9       11.7       11.7       11.7        0.0        0.0        0.0        0.0        0.0        0.0        0.0        0.0        0.0        0.0        0.0        0.0     13.5      15.2      20.5      27.8      35.1    391.85
    18     8  2011    49     2     235.3     5.2      8.2    0.0    5.2    0.0      0.0      0.0   -9.90      0.7      0.7    100     14.3     14.3   100     15.0    15.0     100     16.9    1.44      0      0      0      0      0    89.5    89.5      0     1.00     14.3     14.3     14.3   100    34.3     5.726    -9.9    0.000    0.000      97        0.00    0.000    0.000     235.3    235.3    1.44   136.5     606.9     167.5     167.5     105.0     105.0      35.3    0.000     0.000     0.000     0.000     0.000    1.44     0.00    0.00      0   -9.90   -9.00        9.5        9.5        9.5        9.5        9.5        9.5        9.5        9.5        9.7       11.7       11.7       11.7        0.0        0.0        0.0        0.0        0.0        0.0        0.0        0.0        0.0        0.0        0.0        0.0      5.2      14.4      19.9      26.7      33.6    391.85
    19     8  2011    50     2     235.3     6.4      8.9    0.0    6.4    0.0      0.0      0.0   -9.90      0.7      0.7    100     14.6     14.6   100     15.2    15.2     100     17.4    1.46      0      0      0      0      0    90.4    90.4      0     1.00     14.6     14.6     14.6   100    34.3     6.070    -9.9    0.000    0.000      97        0.00    0.000    0.000     235.3    235.3    1.46   138.6     615.5     169.9     169.9     107.1     107.1      35.8    0.000     0.000     0.000     0.000     0.000    1.46     0.00    0.00      0   -9.90   -9.00        9.5        9.5        9.5        9.5        9.5        9.5        9.5        9.5        9.6       11.7       11.7       11.7        0.0        0.0        0.0        0.0        0.0        0.0        0.0        0.0        0.0        0.0        0.0        0.0      6.4      14.6      20.9      27.7      34.5    391.85
    20     8  2011    51     2     236.6     4.8     12.7    0.0    4.8    0.0      0.0      0.0   -9.90      0.6      0.6    100     15.5     15.5   100     16.2    16.2     100     17.0    1.48      0      0      0      0      0    91.1    91.1      0     1.01     15.5     15.5     15.5   100    34.3     6.414    -9.9    0.000    0.000      97        0.00    0.000    0.000     236.6    236.6    1.48   141.8     624.2     172.3     172.3     111.4     111.4      36.3    0.000     0.000     0.000     0.000     0.000    1.48     0.00    0.00      0   -9.90   -9.00        9.6        9.6        9.6        9.6        9.6        9.6        9.6        9.6        9.6       11.7       11.7       11.7        0.0        0.0        0.0        0.0        0.0        0.0        0.0        0.0        0.0        0.0        0.0        0.0      4.8      15.5      19.9      27.6      35.3    391.85
    21     8  2011    52     2     235.0    10.0      3.5    0.0    9.9    0.0      0.0      0.0   -9.90      0.5      0.5    100     14.6     14.6   100     15.1    15.1     100     17.8    1.50      0      0      0      0      0    91.7    91.7      0     1.01     14.6     14.6     14.6   100    34.3     6.761    -9.9    0.000    0.000      98        0.00    0.000    0.000     235.0    235.0    1.50   142.2     632.8     174.7     174.7     109.6     109.6      36.8    0.000     0.000     0.000     0.000     0.000    1.50     0.00    0.00      0   -9.90   -9.00        9.5        9.5        9.5        9.5        9.5        9.5        9.5        9.5        9.6       11.7       11.7       11.7        0.0        0.0        0.0        0.0        0.0        0.0        0.0        0.0        0.0        0.0        0.0        0.0     10.0      14.4      21.6      28.1      34.7    391.85
    22     8  2011    53     2     236.6     1.6     16.1    0.0    1.6    0.0      0.0      0.0   -9.90      0.5      0.5    100     15.7     15.7   100     16.1    16.1     100     16.9    1.52      2      0      0      0      0    92.2    92.2      0     1.01     15.7     15.7     15.7   100    34.3     7.108    -9.9    0.000    0.000      98        0.00    0.000    0.000     236.6    236.6    1.52   145.7     641.3     177.0     177.0     114.4     114.4      37.3    0.000     0.000     0.000     0.000     0.000    1.52     0.00    0.00      0   -9.90   -9.00        9.6        9.6        9.6        9.6        9.6        9.6        9.6        9.6        9.6       11.7       11.7       11.7        0.0        0.0        0.0        0.0        0.0        0.0        0.0        0.0        0.0        0.0        0.0        0.0      1.6      15.4      19.9      27.6      35.3    391.85
    23     8  2011    54     2     235.7     2.1     12.6    0.0    2.1    0.0      0.0      0.0   -9.90      0.4      0.4    100     15.1     15.1   100     15.6    15.6     100     16.9    1.54      0      0      0      0      0    92.6    92.6      0     1.02     15.1     15.1     15.1   100    34.3     7.457    -9.9    0.000    0.000      98        0.00    0.000    0.000     235.7    235.7    1.54   146.8     649.8     179.4     179.4     114.2     114.2      37.8    0.000     0.000     0.000     0.000     0.000    1.54     0.00    0.00      0   -9.90   -9.00        9.5        9.5        9.6        9.6        9.6        9.6        9.6        9.6        9.6       11.7       11.7       11.7        0.0        0.0        0.0        0.0        0.0        0.0        0.0        0.0        0.0        0.0        0.0        0.0      2.1      14.9      19.8      27.1      34.4    391.85
    24     8  2011    55     2     233.8     1.7     10.8    0.0    1.7    0.0      0.0      0.0   -9.90      0.4      0.4    100     14.1     14.1   100     14.5    14.5     100     17.3    1.56      2      0      0      0      0    93.0    93.0      0     1.02     14.1     14.1     14.1   100    34.3     7.806    -9.9    0.000    0.000      98        0.00    0.000    0.000     233.8    233.8    1.56   147.1     658.3     181.7     181.7     112.1     112.1      38.3    0.000     0.000     0.000     0.000     0.000    1.56     0.00    0.00      0   -9.90   -9.00        9.4        9.4        9.5        9.5        9.5        9.5        9.5        9.5        9.5       11.6       11.7       11.7        0.0        0.0        0.0        0.0        0.0        0.0        0.0        0.0        0.0        0.0        0.0        0.0      1.7      13.8      20.5      26.9      33.3    391.85
    25     8  2011    56     3     237.3     2.9     17.6    0.0    2.9    0.0      0.0      0.0   -9.90      0.4      0.4    100     16.6     16.6   100     17.0    17.0     100     16.7    1.58      0      0      0      0      0    93.2    93.2      0     1.02     16.6     16.6     16.6   100    34.3     8.156    -9.9    0.000    0.000      98        0.00    0.000    0.000     237.3    237.3    1.58   153.4     666.7     184.0     184.0     121.7     121.7      38.8    0.000     0.000     0.000     0.000     0.000    1.58     0.00    0.00      0   -9.90   -9.00        9.7        9.7        9.7        9.7        9.7        9.7        9.7        9.7        9.7       11.4       11.7       11.7        0.0        0.0        0.0        0.0        0.0        0.0        0.0        0.0        0.0        0.0        0.0        0.0      2.9      16.3      19.4      27.8      36.3    391.85
    26     8  2011    57     3     234.3    10.0      2.7    0.0    9.9    0.0      0.0      0.0   -9.90      0.3      0.3    100     15.3     15.3   100     15.7    15.7     100     17.0    1.60      0      0      0      0      0    93.5    93.5      0     1.02     15.3     15.3     15.3   100    34.3     8.506    -9.9    0.000    0.000      98        0.00    0.000    0.000     234.3    234.3    1.60   153.3     675.1     186.4     186.4     118.9     118.9      39.3    0.000     0.000     0.000     0.000     0.000    1.60     0.00    0.00      0   -9.90   -9.00        9.5        9.5        9.6        9.6        9.6        9.6        9.6        9.6        9.6       11.1       11.7       11.7        0.0        0.0        0.0        0.0        0.0        0.0        0.0        0.0        0.0        0.0        0.0        0.0     10.0      15.0      20.0      27.4      34.7    391.85
    27     8  2011    58     3     229.9     2.1      7.1    0.0    2.1    0.0      0.0      0.0   -9.90      0.3      0.3    100     13.3     13.3   100     13.6    13.6     100     17.3    1.62      0      0      0      0      0    93.7    93.7      0     1.02     13.3     13.3     13.3   100    34.3     8.857     1.5    0.134    0.149      98        0.02    0.000    0.000     229.9    229.9    1.62   152.0     683.5     188.7     188.7     113.6     113.6      39.8    0.000     0.000     0.000     0.000     0.000    1.62     0.00    0.00      0   -9.90   -9.00        9.3        9.3        9.4        9.4        9.4        9.4        9.4        9.4        9.4       10.6       11.7       11.7        0.0        0.0        0.0        0.0        0.0        0.0        0.0        0.0        0.0        0.0        0.0        0.0      2.1      13.0      20.5      26.3      32.2    391.85
    28     8  2011    59     3     231.8     0.8     16.4    0.0    0.8    0.0      0.0      0.0   -9.90      0.3      0.3    100     15.0     15.0   100     15.4    15.4     100     17.3    1.64      9      0      0      0      0    93.8    93.8      0     1.02     15.0     15.0     15.0   100    34.3     9.208     1.9    0.170    0.189      98        0.02    0.000    0.000     231.8    231.8    1.64   156.5     691.8     191.0     191.0     120.8     120.8      40.3    0.000     0.000     0.000     0.000     0.000    1.64     0.00    0.00      0   -9.90   -9.00        9.5        9.5        9.6        9.6        9.6        9.6        9.6        9.6        9.6       10.3       11.7       11.7        0.0        0.0        0.0        0.0        0.0        0.0        0.0        0.0        0.0        0.0        0.0        0.0      0.8      14.7      20.6      27.6      34.6    391.85
    29     8  2011    60     3     230.8     2.6     11.7    0.0    2.6    0.0      0.0      0.0   -9.90      0.3      0.3    100     14.9     14.9   100     15.2    15.2     100     16.8    1.66      0      0      0      0      0    93.9    93.9      0     1.02     14.9     14.9     14.9   100    34.3     9.559     2.3    0.216    0.240      98        0.03    0.000    0.000     230.8    230.8    1.66   158.0     700.1     193.3     193.3     121.9     121.9      40.8    0.000     0.000     0.000     0.000     0.000    1.66     0.00    0.00      0   -9.90   -9.00        9.5        9.5        9.5        9.5        9.5        9.5        9.5        9.5        9.5       10.0       11.7       11.7        0.0        0.0        0.0        0.0        0.0        0.0        0.0        0.0        0.0        0.0        0.0        0.0      2.6      14.6      19.6      26.8      34.0    391.85
    30     8  2011    61     3     229.5    13.5      0.0    0.0   13.4    0.1      0.0      0.0   -9.90      0.3      0.3    100     14.5     14.5   100     14.7    14.7     100     16.6    1.68      0      0      0      0      0    93.9    93.9      0     1.02     14.5     14.5     14.5   100    34.3     9.910     2.8    0.274    0.304      98        0.04    0.000    0.000     229.5    229.5    1.68   158.9     708.4     195.5     195.5     121.7     121.7      41.3    0.000     0.000     0.000     0.000     0.000    1.68     0.00    0.00      0   -9.90   -9.00        9.4        9.4        9.5        9.5        9.5        9.5        9.5        9.5        9.5        9.7       11.7       11.7        0.0        0.0        0.0        0.0        0.0        0.0        0.0        0.0        0.0        0.0        0.0        0.0     13.5      14.1      19.3      26.2      33.2    391.85
    31     8  2011    62     3     229.4     6.9      7.7    0.0    6.9    0.0      0.0      0.0   -9.90      0.3      0.3    100     14.4     14.4   100     14.8    14.8     100     16.6    1.70     -9      0      0      0      0    93.4    93.4      0     1.01     14.4     14.4     14.4   100    34.3    10.257     3.4    0.345    0.383      98        0.05    0.000    0.000     229.4    229.4    1.70   160.8     716.6     197.8     197.8     123.5     123.5      41.8    0.000     0.000     0.000     0.000     0.000    1.70     0.00    0.00      0   -9.90   -9.00        9.5        9.5        9.5        9.5        9.5        9.5        9.5        9.5        9.5        9.6       11.7       11.7        0.0        0.0        0.0        0.0        0.0        0.0        0.0        0.0        0.0        0.0        0.0        0.0      6.9      14.2      19.2      26.2      33.3    391.85
     1     9  2011    63     3     228.5     4.0      9.5    0.0    4.0    0.0      0.0      0.0   -9.90      0.3      0.3    100     14.0     14.0   100     14.3    14.3     100     17.6    1.71     -9      0      0      0      0    93.4    93.4      0     1.01     14.0     14.0     14.0   100    34.3    10.604     4.1    0.433    0.481      98        0.06    0.000    0.000     228.5    228.5    1.71   161.9     724.8     200.1     200.1     123.5     123.5      42.3    0.000     0.000     0.000     0.000     0.000    1.71     0.00    0.00      0   -9.90   -9.00        9.4        9.4        9.5        9.5        9.5        9.5        9.5        9.5        9.5        9.5       11.7       11.7        0.0        0.0        0.0        0.0        0.0        0.0        0.0        0.0        0.0        0.0        0.0        0.0      4.0      13.9      21.2      27.6      33.9    391.85
     2     9  2011    64     3     229.7     3.8     12.3    0.0    3.8    0.0      0.0      0.0   -9.90      0.3      0.3    100     14.7     14.7   100     15.0    15.0     100     16.4    1.73     -9      0      0      0      0    93.5    93.5      0     1.01     14.7     14.7     14.7   100    34.3    10.950     4.9    0.541    0.601      98        0.07    0.000    0.000     229.7    229.7    1.73   164.8     732.9     202.3     202.3     127.4     127.4      42.7    0.000     0.000     0.000     0.000     0.000    1.73     0.00    0.00      0   -9.90   -9.00        9.5        9.5        9.5        9.5        9.5        9.5        9.5        9.5        9.5        9.5       11.7       11.7        0.0        0.0        0.0        0.0        0.0        0.0        0.0        0.0        0.0        0.0        0.0        0.0      3.8      14.5      18.9      26.2      33.6    391.85
     3     9  2011    65     3     227.0     5.1      5.7    0.0    5.1    0.0      0.0      0.0   -9.90      0.3      0.3    100     13.2     13.2   100     13.5    13.5     100     17.9    1.75     -9      0      0      0      0    93.6    93.6      0     1.01     13.2     13.2     13.2   100    34.3    11.296     5.9    0.672    0.746      98        0.09    0.000    0.000     227.0    227.0    1.75   164.0     741.1     204.6     204.6     123.4     123.4      43.2    0.000     0.000     0.000     0.000     0.000    1.75     0.00    0.00      0   -9.90   -9.00        9.3        9.3        9.4        9.4        9.4        9.4        9.4        9.4        9.4        9.4       11.7       11.7        0.0        0.0        0.0        0.0        0.0        0.0        0.0        0.0        0.0        0.0        0.0        0.0      5.1      13.1      21.7      27.4      33.1    391.85
     4     9  2011    66     3     227.8     1.1     13.6    0.0    1.1    0.0      0.0      0.0   -9.90      0.3      0.3    100     13.6     13.6   100     13.9    13.9     100     16.5    1.77     -9      0      0      0      0    93.6    93.6      0     1.01     13.6     13.6     13.6   100    34.3    11.640     7.1    0.830    0.922      98        0.11    0.000    0.000     227.8    227.8    1.77   166.6     749.2     206.8     206.8     126.5     126.5      43.7    0.000     0.000     0.000     0.000     0.000    1.77     0.00    0.00      0   -9.90   -9.00        9.4        9.4        9.4        9.4        9.4        9.4        9.4        9.4        9.4        9.4       11.7       11.7        0.0        0.0        0.0        0.0        0.0        0.0        0.0        0.0        0.0        0.0        0.0        0.0      1.1      13.5      18.9      25.6      32.2    391.85
     5     9  2011    67     3     228.6     2.7     12.5    0.0    2.7    0.0      0.0      0.0   -9.90      0.3      0.3    100     14.0     14.0   100     14.3    14.3     100     16.5    1.79     -9      0      0      0      0    93.7    93.7      0     1.00     14.0     14.0     14.0   100    34.3    11.985     8.5    1.019    1.132      98        0.13    0.000    0.000     228.6    228.6    1.79   169.2     757.2     209.0     209.0     129.4     129.4      44.2    0.000     0.000     0.000     0.000     0.000    1.79     0.00    0.00      0   -9.90   -9.00        9.4        9.4        9.5        9.5        9.5        9.5        9.5        9.5        9.5        9.5       11.7       11.7        0.0        0.0        0.0        0.0        0.0        0.0        0.0        0.0        0.0        0.0        0.0        0.0      2.7      13.9      18.9      25.9      32.9    391.85
     6     9  2011    68     3     229.7     1.9     14.1    0.0    1.9    0.0      0.0      0.0   -9.90      0.3      0.3    100     14.6     14.6   100     15.0    15.0     100     16.1    1.81     -9      0      0      0      0    93.7    93.7      0     1.00     14.6     14.6     14.6   100    34.3    12.328    10.0    1.236    1.374      98        0.15    0.000    0.000     229.7    229.7    1.81   172.5     765.3     211.2     211.2     133.4     133.4      44.6    0.000     0.000     0.000     0.000     0.000    1.81     0.00    0.00      0   -9.90   -9.00        9.5        9.5        9.6        9.6        9.6        9.6        9.6        9.6        9.6        9.6       11.6       11.7        0.0        0.0        0.0        0.0        0.0        0.0        0.0        0.0        0.0        0.0        0.0        0.0      1.9      14.6      18.2      25.9      33.6    391.85
     7     9  2011    69     4     225.9     8.6      0.8    0.0    8.6    0.0      0.0      0.0   -9.90      0.3      0.3    100     13.0     13.0   100     13.2    13.2     100     17.8    1.83     -9      0      0      0      0    93.7    93.7      0     1.00     13.0     13.0     13.0   100    34.3    12.671    11.6    1.464    1.627      98        0.18    0.000    0.000     225.9    225.9    1.83   171.5     773.3     213.5     213.5     128.4     128.4      45.1    0.000     0.000     0.000     0.000     0.000    1.83     0.00    0.00      0   -9.90   -9.00        9.3        9.3        9.4        9.4        9.4        9.4        9.4        9.4        9.4        9.4       11.4       11.7        0.0        0.0        0.0        0.0        0.0        0.0        0.0        0.0        0.0        0.0        0.0        0.0      8.6      13.0      21.6      27.3      33.0    391.85
     8     9  2011    70     4     229.1     7.4     11.3    0.0    7.4    0.0      0.0      0.0   -9.90      0.3      0.3    100     15.1     15.1   100     15.4    15.4     100     16.3    1.85     -9      0      0      0      0    93.8    93.8      0     1.00     15.1     15.1     15.1   100    34.3    13.013    13.1    1.702    1.891      98        0.20    0.000    0.000     229.1    229.1    1.85   177.6     781.3     215.7     215.7     138.1     138.1      45.6    0.000     0.000     0.000     0.000     0.000    1.85     0.00    0.00      0   -9.90   -9.00        9.6        9.6        9.6        9.6        9.6        9.6        9.6        9.6        9.6        9.6       11.0       11.7        0.0        0.0        0.0        0.0        0.0        0.0        0.0        0.0        0.0        0.0        0.0        0.0      7.4      15.1      18.6      26.6      34.6    391.85
     9     9  2011    71     4     225.9     4.8      6.2    0.0    4.8    0.0      0.0      0.0   -9.90      0.3      0.3    100     13.9     13.9   100     14.2    14.2     100     17.1    1.87     -9      0      0      0      0    93.8    93.8      0     0.99     13.9     13.9     13.9   100    34.3    13.354    14.6    1.951    2.167      98        0.23    0.000    0.000     225.9    225.9    1.87   177.2     789.2     217.9     217.9     135.0     135.0      46.1    0.000     0.000     0.000     0.000     0.000    1.87     0.00    0.00      0   -9.90   -9.00        9.4        9.4        9.5        9.5        9.5        9.5        9.5        9.5        9.5        9.5       10.6       11.7        0.0        0.0        0.0        0.0        0.0        0.0        0.0        0.0        0.0        0.0        0.0        0.0      4.8      14.0      20.1      26.9      33.6    391.85
    10     9  2011    72     4     225.5     4.4      9.6    0.0    4.4    0.0      0.0      0.0   -9.90      0.3      0.3    100     14.1     14.1   100     14.4    14.4     100     16.4    1.89     -9      0      0      0      0    93.8    93.8      0     0.99     14.1     14.1     14.1   100    34.3    13.694    16.1    2.209    2.455      98        0.25    0.000    0.000     225.5    225.5    1.89   179.4     797.2     220.0     220.0     137.4     137.4      46.5    0.000     0.000     0.000     0.000     0.000    1.89     0.00    0.00      0   -9.90   -9.00        9.5        9.5        9.5        9.5        9.5        9.5        9.5        9.5        9.5        9.5       10.2       11.7        0.0        0.0        0.0        0.0        0.0        0.0        0.0        0.0        0.0        0.0        0.0        0.0      4.4      14.2      18.9      26.1      33.4    391.85
    11     9  2011    73     4     226.5    14.4      2.0    0.0   14.2    0.2      0.0      0.0   -9.90      0.3      0.3    100     14.9     14.9   100     15.3    15.3     100     17.3    1.90     -9      0      0      0      0    93.8    93.8      0     0.99     14.9     14.9     14.9   100    34.3    14.034    17.7    2.478    2.754      98        0.28    0.000    0.000     226.5    226.5    1.90   182.6     805.1     222.2     222.2     142.3     142.3      47.0    0.000     0.000     0.000     0.000     0.000    1.90     0.00    0.00      0   -9.90   -9.00        9.6        9.6        9.6        9.6        9.6        9.6        9.6        9.6        9.6        9.6       10.0       11.7        0.0        0.0        0.0        0.0        0.0        0.0        0.0        0.0        0.0        0.0        0.0        0.0     14.4      15.1      20.7      28.2      35.7    391.85
    12     9  2011    74     4     225.1    12.7      0.9    0.0   12.5    0.1      0.0      0.0   -9.90      0.3      0.3    100     14.5     14.5   100     14.8    14.8     100     16.6    1.92     -9      0      0      0      0    93.8    93.8      0     0.99     14.5     14.5     14.5   100    34.3    14.373    19.2    2.757    3.064      98        0.30    0.000    0.000     225.1    225.1    1.92   183.4     813.0     224.4     224.4     141.9     141.9      47.5    0.000     0.000     0.000     0.000     0.000    1.92     0.00    0.00      0   -9.90   -9.00        9.5        9.5        9.6        9.6        9.6        9.6        9.6        9.6        9.6        9.6        9.8       11.7        0.0        0.0        0.0        0.0        0.0        0.0        0.0        0.0        0.0        0.0        0.0        0.0     12.7      14.7      19.2      26.7      34.3    391.85
    13     9  2011    75     4     225.0     1.5     13.1    0.0    1.5    0.0      0.0      0.0   -9.90      0.3      0.3    100     14.5     14.5   100     14.8    14.8     100     16.7    1.94     -9      0      0      0      0    93.9    93.9      0     0.98     14.5     14.5     14.5   100    34.3    14.710    20.7    3.047    3.385      98        0.33    0.000    0.000     225.0    225.0    1.94   185.2     820.8     226.6     226.6     143.5     143.5      47.9    0.000     0.000     0.000     0.000     0.000    1.94     0.00    0.00      0   -9.90   -9.00        9.5        9.5        9.6        9.6        9.6        9.6        9.6        9.6        9.6        9.6        9.7       11.7        0.0        0.0        0.0        0.0        0.0        0.0        0.0        0.0        0.0        0.0        0.0        0.0      1.5      14.7      19.4      27.0      34.6    391.85
    14     9  2011    76     4     224.8     1.1     13.3    0.0    1.1    0.0      0.0      0.0   -9.90      0.4      0.4    100     14.3     14.3   100     14.7    14.7     100     16.7    1.96     -9      0     -9      0      0    93.3    93.3      0     0.97     14.3     14.3     14.3   100    34.3    15.044    22.2    3.345    3.717      98        0.36    0.000    0.000     224.8    224.8    1.96   186.8     828.6     228.7     228.7     144.8     144.8      48.4    0.000     0.000     0.000     0.000     0.000    1.96     0.00    0.00      0   -9.90   -9.00        9.5        9.5        9.6        9.6        9.6        9.6        9.6        9.6        9.6        9.6        9.6       11.7        0.0        0.0        0.0        0.0        0.0        0.0        0.0        0.0        0.0        0.0        0.0        0.0      1.1      14.7      19.3      26.9      34.5    391.85
    15     9  2011    77     4     223.8     8.7      4.4    0.0    8.7    0.0      0.0      0.0   -9.90      0.4      0.4    100     13.7     13.7   100     14.1    14.1     100     17.3    1.98     -9      0     -9      0      0    92.7    92.7      0     0.96     13.7     13.7     13.7   100    34.3    15.373    23.8    3.653    4.059      98        0.38    0.000    0.000     223.8    223.8    1.98   187.6     836.4     230.9     230.9     144.3     144.3      48.8    0.000     0.000     0.000     0.000     0.000    1.98     0.00    0.00      0   -9.90   -9.00        9.5        9.5        9.5        9.5        9.5        9.5        9.5        9.5        9.5        9.5        9.5       11.7        0.0        0.0        0.0        0.0        0.0        0.0        0.0        0.0        0.0        0.0        0.0        0.0      8.7      14.3      20.5      27.5      34.5    391.85
    16     9  2011    78     4     221.7     8.2      2.7    0.0    8.2    0.0      0.0      0.0   -9.90      0.4      0.4    100     12.6     12.6   100     13.0    13.0     100     16.9    2.00     -9      0     -9      0      0    91.9    91.9      0     0.94     12.6     12.6     12.6   100    34.3    15.697    25.3    3.969    4.411      98        0.41    0.000    0.000     221.7    221.7    2.00   187.3     844.2     233.0     233.0     141.6     141.6      49.3    0.000     0.000     0.000     0.000     0.000    2.00     0.00    0.00      0   -9.90   -9.00        9.4        9.4        9.4        9.4        9.4        9.4        9.4        9.4        9.4        9.4        9.4       11.7        0.0        0.0        0.0        0.0        0.0        0.0        0.0        0.0        0.0        0.0        0.0        0.0      8.2      13.3      19.8      26.2      32.7    391.85
    17     9  2011    79     4     221.2     6.4      5.8    0.0    6.4    0.0      0.0      0.0   -9.90      0.5      0.5    100     12.1     12.1   100     12.7    12.7     100     17.5    2.01     -9      0     -9      0      0    91.0    91.0      0     0.93     12.1     12.1     12.1   100    34.3    16.015    26.8    4.294    4.771      98        0.44    0.000    0.000     221.2    221.2    2.01   188.6     852.0     235.2     235.2     142.0     142.0      49.8    0.000     0.000     0.000     0.000     0.000    2.01     0.00    0.00      0   -9.90   -9.00        9.3        9.3        9.4        9.4        9.4        9.4        9.4        9.4        9.4        9.4        9.4       11.7        0.0        0.0        0.0        0.0        0.0        0.0        0.0        0.0        0.0        0.0        0.0        0.0      6.4      13.1      21.1      27.1      33.2    391.85
    18     9  2011    80     4     223.8     3.6     12.6    0.0    3.6    0.0      0.0      0.0   -9.90      0.6      0.6    100     13.0     13.0   100     13.6    13.6     100     17.4    2.03     -9      0     -9      0      0    90.1    90.1      0     0.91     13.0     13.0     13.0   100    34.3    16.327    28.3    4.627    5.141      98        0.47    0.000    0.000     223.8    223.8    2.03   192.9     859.7     237.3     237.3     148.5     148.5      50.2    0.000     0.000     0.000     0.000     0.000    2.03     0.00    0.00      0   -9.90   -9.00        9.5        9.5        9.5        9.5        9.5        9.5        9.5        9.5        9.5        9.5        9.5       11.7        0.0        0.0        0.0        0.0        0.0        0.0        0.0        0.0        0.0        0.0        0.0        0.0      3.6      14.3      20.9      27.9      34.9    391.85
    19     9  2011    81     4     219.7     0.8      6.9    0.0    0.8    0.0      0.0      0.0   -9.90      0.6      0.6    100     11.1     11.1   100     11.7    11.7     100     17.4    2.05     -9      0     -9      0      0    89.0    89.0      0     0.89     11.1     11.1     11.1   100    34.3    16.632    29.9    4.967    5.519      98        0.50    0.000    0.000     219.7    219.7    2.05   190.6     867.4     239.4     239.4     141.7     141.7      50.7    0.000     0.000     0.000     0.000     0.000    2.05     0.00    0.00      0   -9.90   -9.00        9.3        9.3        9.3        9.3        9.3        9.3        9.3        9.3        9.3        9.3        9.3       11.7        0.0        0.0        0.0        0.0        0.0        0.0        0.0        0.0        0.0        0.0        0.0        0.0      0.8      12.4      20.8      26.5      32.1    391.85
    20     9  2011    82     4     218.9     9.8      0.7    0.0    9.8    0.0      0.0      0.0   -9.90      0.7      0.7    100     10.6     10.6   100     11.4    11.4     100     17.5    2.07     -9      0     -9      0      0    87.8    87.8      0     0.87     10.6     10.6     10.6   100    34.3    16.929    31.4    5.314    5.905      98        0.52    0.000    0.000     218.9    218.9    2.07   192.3     875.1     241.5     241.5     142.2     142.2      51.1    0.000     0.000     0.000     0.000     0.000    2.07     0.00    0.00      0   -9.90   -9.00        9.2        9.2        9.3        9.3        9.3        9.3        9.3        9.3        9.3        9.3        9.3       11.5        0.0        0.0        0.0        0.0        0.0        0.0        0.0        0.0        0.0        0.0        0.0        0.0      9.8      12.3      20.9      26.5      32.0    391.85
    21     9  2011    83     4     219.8     4.5      8.3    0.0    4.5    0.0      0.0      0.0   -9.90      0.9      0.9    100     11.0     11.0   100     11.9    11.9     100     17.6    2.09     -9      0     -9      0      0    86.4    86.4      0     0.84     11.0     11.0     11.0   100    34.3    17.218    32.9    5.668    6.297      98        0.55    0.000    0.000     219.8    219.8    2.09   196.0     882.8     243.7     243.7     146.9     146.9      51.6    0.000     0.000     0.000     0.000     0.000    2.09     0.00    0.00      0   -9.90   -9.00        9.3        9.3        9.4        9.4        9.4        9.4        9.4        9.4        9.4        9.4        9.4       11.2        0.0        0.0        0.0        0.0        0.0        0.0        0.0        0.0        0.0        0.0        0.0        0.0      4.5      13.1      21.2      27.2      33.3    391.85
    22     9  2011    84     4     219.4     2.0      9.4    0.0    2.0    0.0      0.0      0.0   -9.90      1.0      1.0    100     10.8     10.8   100     11.9    11.9     100     16.9    2.10     -9      0     -9      0      0    84.8    84.8      0     0.82     10.8     10.8     10.8   100    34.3    17.497    34.4    6.027    6.696      98        0.58    0.000    0.000     219.4    219.4    2.10   198.3     890.4     245.8     245.8     149.3     149.3      52.0    0.000     0.000     0.000     0.000     0.000    2.10     0.00    0.00      0   -9.90   -9.00        9.4        9.4        9.4        9.4        9.4        9.4        9.4        9.4        9.4        9.4        9.4       10.8        0.0        0.0        0.0        0.0        0.0        0.0        0.0        0.0        0.0        0.0        0.0        0.0      2.0      13.3      19.8      26.3      32.9    391.85
    23     9  2011    85     4     220.5     2.4     11.2    0.0    2.4    0.0      0.0      0.0   -9.90      1.2      1.2    100     11.2     11.2   100     12.5    12.5     100     16.3    2.12     -9      0     -9      0      0    83.1    83.1      0     0.79     11.2     11.2     11.2   100    34.3    17.767    36.0    6.391    7.101      98        0.61    0.000    0.000     220.5    220.5    2.12   202.1     898.0     247.9     247.9     154.9     154.9      52.5    0.000     0.000     0.000     0.000     0.000    2.12     0.00    0.00      0   -9.90   -9.00        9.5        9.5        9.5        9.5        9.5        9.5        9.5        9.5        9.5        9.5        9.5       10.4        0.0        0.0        0.0        0.0        0.0        0.0        0.0        0.0        0.0        0.0        0.0        0.0      2.4      14.3      18.6      26.3      33.9    391.85
    24     9  2011    86     4     219.4     3.1      7.8    0.0    3.1    0.0      0.0      0.0   -9.90      1.4      1.4    100     10.7     10.7   100     12.1    12.1     100     15.7    2.14     -9      0     -9      0      0    81.1    81.1      0     0.75     10.7     10.7     10.7   100    34.3    18.026    37.5    6.759    7.510      98        0.64    0.000    0.000     219.4    219.4    2.14   203.4     905.6     250.0     250.0     155.7     155.7      52.9    0.000     0.000     0.000     0.000     0.000    2.14     0.00    0.00      0   -9.90   -9.00        9.5        9.5        9.5        9.5        9.5        9.5        9.5        9.5        9.5        9.5        9.5       10.1        0.0        0.0        0.0        0.0        0.0        0.0        0.0        0.0        0.0        0.0        0.0        0.0      3.1      14.2      17.4      25.3      33.2    391.85
    25     9  2011    87     4     220.5     4.4      8.9    0.0    4.4    0.0      0.0      0.0   -9.90      1.6      1.6    100     10.7     10.7   100     12.3    12.3     100     16.4    2.16     -9      0     -9      0      0    78.9    78.9      0     0.72     10.7     10.7     10.7   100    34.3    18.272    39.0    7.130    7.922      98        0.66    0.000    0.000     220.5    220.5    2.16   206.5     913.2     252.1     252.1     160.4     160.4      53.4    0.000     0.000     0.000     0.000     0.000    2.16     0.00    0.00      0   -9.90   -9.00        9.5        9.5        9.6        9.6        9.6        9.6        9.6        9.6        9.6        9.6        9.6        9.9        0.0        0.0        0.0        0.0        0.0        0.0        0.0        0.0        0.0        0.0        0.0        0.0      4.4      14.9      18.7      26.9      35.0    391.85
[...]
    10    12  2015    -9     0     205.9     2.5      0.0    0.0    2.5    0.0      0.0      0.0   -9.90     12.3      3.3     27      0.0      0.0   100     12.3     3.3      27     16.8    2.28     -9     -9     -9      0     -9     0.0     0.0      0    -9.00      0.0      0.0      0.0   100    34.5    20.011    48.2    9.641   10.712     100        0.84    0.000    0.000     205.9    205.9    2.28   204.3     965.7     266.5     266.5     151.6     160.5      56.5    0.000     0.000     0.000     0.000     0.000    2.28     0.00    0.00      0   -9.90   -9.00        2.2        7.6        9.5        9.4        9.4        9.4        9.4        9.4        9.4        9.4        9.4        9.4        0.0        0.0        0.0        0.0        0.0        0.0        0.0        0.0        0.0        0.0        0.0        0.0      2.5      11.2      19.5      26.5      33.5    401.01
    11    12  2015    -9     0     206.3     5.2      0.0    0.0    5.2    0.0      0.0      0.0   -9.90     12.6      4.8     38      0.0      0.0   100     12.6     4.8      38     17.1    2.28     -9     -9     -9      0     -9     0.0     0.0      0    -9.00      0.0      0.0      0.0   100    34.5    20.011    48.2    9.641   10.712     100        0.84    0.000    0.000     206.3    206.3    2.28   204.7     965.7     266.5     266.5     152.8     160.5      56.5    0.000     0.000     0.000     0.000     0.000    2.28     0.00    0.00      0   -9.90   -9.00        2.7        7.6        9.5        9.4        9.4        9.4        9.4        9.4        9.4        9.4        9.4        9.4        0.0        0.0        0.0        0.0        0.0        0.0        0.0        0.0        0.0        0.0        0.0        0.0      5.2      11.4      20.1      27.2      34.3    401.01
    12    12  2015    -9     0     206.2     4.6      0.0    0.0    4.6    0.0      0.0      0.0   -9.90     12.8      4.7     37      0.0      0.0   100     12.8     4.7      37     16.5    2.28     -9     -9     -9      0     -9     0.0     0.0      0    -9.00      0.0      0.0      0.0   100    34.5    20.011    48.2    9.641   10.712     100        0.84    0.000    0.000     206.2    206.2    2.28   204.6     965.7     266.5     266.5     153.8     160.5      56.5    0.000     0.000     0.000     0.000     0.000    2.28     0.00    0.00      0   -9.90   -9.00        2.5        7.6        9.5        9.4        9.4        9.4        9.4        9.4        9.4        9.4        9.4        9.4        0.0        0.0        0.0        0.0        0.0        0.0        0.0        0.0        0.0        0.0        0.0        0.0      4.6      11.6      18.9      26.5      34.1    401.01
    13    12  2015    -9     0     207.2     6.1      0.0    0.0    6.1    0.0      0.0      0.0   -9.90     12.2      5.1     42      0.0      0.0   100     12.2     5.1      42     17.0    2.28     -9     -9     -9      0     -9     0.0     0.0      0    -9.00      0.0      0.0      0.0   100    34.5    20.011    48.2    9.641   10.712     100        0.84    0.000    0.000     207.2    207.2    2.28   205.5     965.7     266.5     266.5     151.2     160.5      56.5    0.000     0.000     0.000     0.000     0.000    2.28     0.00    0.00      0   -9.90   -9.00        3.5        7.6        9.5        9.4        9.4        9.4        9.4        9.4        9.4        9.4        9.4        9.4        0.0        0.0        0.0        0.0        0.0        0.0        0.0        0.0        0.0        0.0        0.0        0.0      6.1      11.1      19.9      26.8      33.6    401.01
    14    12  2015    -9     0     206.3     3.1      0.0    0.0    3.1    0.0      0.0      0.0   -9.90     12.6      3.9     31      0.0      0.0   100     12.6     3.9      31     17.3    2.28     -9     -9     -9      0     -9     0.0     0.0      0    -9.00      0.0      0.0      0.0   100    34.5    20.011    48.2    9.641   10.712     100        0.84    0.000    0.000     206.3    206.3    2.28   204.7     965.7     266.5     266.5     152.8     160.5      56.5    0.000     0.000     0.000     0.000     0.000    2.28     0.00    0.00      0   -9.90   -9.00        2.6        7.6        9.5        9.4        9.4        9.4        9.4        9.4        9.4        9.4        9.4        9.4        0.0        0.0        0.0        0.0        0.0        0.0        0.0        0.0        0.0        0.0        0.0        0.0      3.1      11.4      20.5      27.5      34.5    401.01
    15    12  2015    -9     0     205.7     3.3      0.0    0.0    3.3    0.0      0.0      0.0   -9.90     12.2      3.9     32      0.0      0.0   100     12.2     3.9      32     16.7    2.28     -9     -9     -9      0     -9     0.0     0.0      0    -9.00      0.0      0.0      0.0   100    34.5    20.011    48.2    9.641   10.712     100        0.84    0.000    0.000     205.7    205.7    2.28   204.1     965.7     266.5     266.5     151.1     160.5      56.5    0.000     0.000     0.000     0.000     0.000    2.28     0.00    0.00      0   -9.90   -9.00        2.0        7.6        9.5        9.4        9.4        9.4        9.4        9.4        9.4        9.4        9.4        9.4        0.0        0.0        0.0        0.0        0.0        0.0        0.0        0.0        0.0        0.0        0.0        0.0      3.3      11.1      19.4      26.3      33.3    401.01
    16    12  2015    -9     0     205.0     1.8      0.0    0.0    1.8    0.0      0.0      0.0   -9.90     13.6      2.5     19      0.0      0.0   100     13.6     2.5      19     16.3    2.28     -9     -9     -9      0     -9     0.0     0.0      0    -9.00      0.0      0.0      0.0   100    34.5    20.011    48.2    9.641   10.712     100        0.84    0.000    0.000     205.0    205.0    2.28   203.4     965.7     266.5     266.5     157.2     160.5      56.5    0.000     0.000     0.000     0.000     0.000    2.28     0.00    0.00      0   -9.90   -9.00        1.3        7.6        9.5        9.4        9.4        9.4        9.4        9.4        9.4        9.4        9.4        9.4        0.0        0.0        0.0        0.0        0.0        0.0        0.0        0.0        0.0        0.0        0.0        0.0      1.8      12.3      18.7      27.0      35.4    401.01
    17    12  2015    -9     0     207.8     8.1      0.0    0.0    8.1    0.0      0.0      0.0   -9.90     11.7      5.4     46      0.0      0.0   100     11.7     5.4      46     17.0    2.28     -9     -9     -9      0     -9     0.0     0.0      0    -9.00      0.0      0.0      0.0   100    34.5    20.011    48.2    9.641   10.712     100        0.84    0.000    0.000     207.8    207.8    2.28   206.1     965.7     266.5     266.5     149.0     160.5      56.5    0.000     0.000     0.000     0.000     0.000    2.28     0.00    0.00      0   -9.90   -9.00        4.1        7.6        9.5        9.4        9.4        9.4        9.4        9.4        9.4        9.4        9.4        9.4        0.0        0.0        0.0        0.0        0.0        0.0        0.0        0.0        0.0        0.0        0.0        0.0      8.1      10.6      20.1      26.4      32.8    401.01
    18    12  2015    -9     0     206.7     2.8      0.0    0.0    2.8    0.0      0.0      0.0   -9.90     12.6      3.8     30      0.0      0.0   100     12.6     3.8      30     16.1    2.28     -9     -9     -9      0     -9     0.0     0.0      0    -9.00      0.0      0.0      0.0   100    34.5    20.011    48.2    9.641   10.712     100        0.84    0.000    0.000     206.7    206.7    2.28   205.0     965.7     266.5     266.5     153.1     160.5      56.5    0.000     0.000     0.000     0.000     0.000    2.28     0.00    0.00      0   -9.90   -9.00        3.0        7.6        9.5        9.4        9.4        9.4        9.4        9.4        9.4        9.4        9.4        9.4        0.0        0.0        0.0        0.0        0.0        0.0        0.0        0.0        0.0        0.0        0.0        0.0      2.8      11.5      18.3      25.9      33.5    401.01
    19    12  2015    -9     0     206.1     4.1      0.0    0.0    4.1    0.0      0.0      0.0   -9.90     12.1      4.6     38      0.0      0.0   100     12.1     4.6      38     17.2    2.28     -9     -9     -9      0     -9     0.0     0.0      0    -9.00      0.0      0.0      0.0   100    34.5    20.011    48.2    9.641   10.712     100        0.84    0.000    0.000     206.1    206.1    2.28   204.5     965.7     266.5     266.5     151.0     160.5      56.5    0.000     0.000     0.000     0.000     0.000    2.28     0.00    0.00      0   -9.90   -9.00        2.4        7.6        9.5        9.4        9.4        9.4        9.4        9.4        9.4        9.4        9.4        9.4        0.0        0.0        0.0        0.0        0.0        0.0        0.0        0.0        0.0        0.0        0.0        0.0      4.1      11.0      20.4      27.1      33.7    401.01
    20    12  2015    -9     0     205.5     2.0      0.0    0.0    2.0    0.0      0.0      0.0   -9.90     10.7      2.6     24      0.0      0.0   100     10.7     2.6      24     17.4    2.28     -9     -9     -9      0     -9     0.0     0.0      0    -9.00      0.0      0.0      0.0   100    34.5    20.011    48.2    9.641   10.712     100        0.84    0.000    0.000     205.5    205.5    2.28   203.9     965.7     266.5     266.5     144.8     160.5      56.5    0.000     0.000     0.000     0.000     0.000    2.28     0.00    0.00      0   -9.90   -9.00        1.8        7.6        9.5        9.4        9.4        9.4        9.4        9.4        9.4        9.4        9.4        9.4        0.0        0.0        0.0        0.0        0.0        0.0        0.0        0.0        0.0        0.0        0.0        0.0      2.0       9.8      20.8      26.2      31.6    401.01
    21    12  2015    -9     0     204.8     0.8      0.0    0.0    0.8    0.0      0.0      0.0   -9.90     12.8      1.5     12      0.0      0.0   100     12.8     1.5      12     16.5    2.28     -9     -9     -9      0     -9     0.0     0.0      0    -9.00      0.0      0.0      0.0   100    34.5    20.011    48.2    9.641   10.712     100        0.84    0.000    0.000     204.8    204.8    2.28   203.2     965.7     266.5     266.5     154.0     160.5      56.5    0.000     0.000     0.000     0.000     0.000    2.28     0.00    0.00      0   -9.90   -9.00        1.2        7.6        9.5        9.4        9.4        9.4        9.4        9.4        9.4        9.4        9.4        9.4        0.0        0.0        0.0        0.0        0.0        0.0        0.0        0.0        0.0        0.0        0.0        0.0      0.8      11.7      18.9      26.5      34.2    401.01
    22    12  2015    -9     0     204.4     3.7      0.0    0.0    3.7    0.0      0.0      0.0   -9.90     12.1      4.2     35      0.0      0.0   100     12.1     4.2      35     16.5    2.28     -9     -9     -9      0     -9     0.0     0.0      0    -9.00      0.0      0.0      0.0   100    34.5    20.011    48.2    9.641   10.712     100        0.84    0.000    0.000     204.4    204.4    2.28   202.8     965.7     266.5     266.5     150.7     160.5      56.5    0.000     0.000     0.000     0.000     0.000    2.28     0.00    0.00      0   -9.90   -9.00        1.2        7.3        9.5        9.4        9.4        9.4        9.4        9.4        9.4        9.4        9.4        9.4        0.0        0.0        0.0        0.0        0.0        0.0        0.0        0.0        0.0        0.0        0.0        0.0      3.7      11.0      18.9      25.9      32.9    401.01
    23    12  2015    -9     0     208.7    11.6      0.0    0.0   11.6    0.0      0.0      0.0   -9.90     12.5      7.3     58      0.0      0.0   100     12.5     7.3      58     17.6    2.28     -9     -9     -9      0     -9     0.0     0.0      0    -9.00      0.0      0.0      0.0   100    34.5    20.011    48.2    9.641   10.712     100        0.84    0.000    0.000     208.7    208.7    2.28   207.1     965.7     266.5     266.5     152.7     160.5      56.5    0.000     0.000     0.000     0.000     0.000    2.28     0.00    0.00      0   -9.90   -9.00        5.5        7.3        9.5        9.4        9.4        9.4        9.4        9.4        9.4        9.4        9.4        9.4        0.0        0.0        0.0        0.0        0.0        0.0        0.0        0.0        0.0        0.0        0.0        0.0     11.6      11.4      21.3      28.1      34.9    401.01
    24    12  2015    -9     0     207.2     3.2      0.0    0.0    3.2    0.0      0.0      0.0   -9.90     12.2      4.7     38      0.0      0.0   100     12.2     4.7      38     17.4    2.28     -9     -9     -9      0     -9     0.0     0.0      0    -9.00      0.0      0.0      0.0   100    34.5    20.011    48.2    9.641   10.712     100        0.84    0.000    0.000     207.2    207.2    2.28   205.6     965.7     266.5     266.5     151.1     160.5      56.5    0.000     0.000     0.000     0.000     0.000    2.28     0.00    0.00      0   -9.90   -9.00        4.0        7.3        9.5        9.4        9.4        9.4        9.4        9.4        9.4        9.4        9.4        9.4        0.0        0.0        0.0        0.0        0.0        0.0        0.0        0.0        0.0        0.0        0.0        0.0      3.2      11.1      20.8      27.4      34.0    401.01
    25    12  2015    -9     0     207.1     5.0      0.0    0.0    5.0    0.0      0.0      0.0   -9.90     11.5      5.1     44      0.0      0.0   100     11.5     5.1      44     17.0    2.28     -9     -9     -9      0     -9     0.0     0.0      0    -9.00      0.0      0.0      0.0   100    34.5    20.011    48.2    9.641   10.712     100        0.84    0.000    0.000     207.1    207.1    2.28   205.5     965.7     266.5     266.5     148.2     160.5      56.5    0.000     0.000     0.000     0.000     0.000    2.28     0.00    0.00      0   -9.90   -9.00        3.9        7.3        9.5        9.4        9.4        9.4        9.4        9.4        9.4        9.4        9.4        9.4        0.0        0.0        0.0        0.0        0.0        0.0        0.0        0.0        0.0        0.0        0.0        0.0      5.0      10.5      20.0      26.2      32.4    401.01
    26    12  2015    -9     0     206.3     3.0      0.0    0.0    3.0    0.0      0.0      0.0   -9.90     11.6      3.9     33      0.0      0.0   100     11.6     3.9      33     17.0    2.28     -9     -9     -9      0     -9     0.0     0.0      0    -9.00      0.0      0.0      0.0   100    34.5    20.011    48.2    9.641   10.712     100        0.84    0.000    0.000     206.3    206.3    2.28   204.6     965.7     266.5     266.5     148.5     160.5      56.5    0.000     0.000     0.000     0.000     0.000    2.28     0.00    0.00      0   -9.90   -9.00        3.0        7.3        9.5        9.4        9.4        9.4        9.4        9.4        9.4        9.4        9.4        9.4        0.0        0.0        0.0        0.0        0.0        0.0        0.0        0.0        0.0        0.0        0.0        0.0      3.0      10.5      20.0      26.2      32.5    401.01
    27    12  2015    -9     0     205.4     1.0      0.0    0.0    1.0    0.0      0.0      0.0   -9.90     12.8      1.9     15      0.0      0.0   100     12.8     1.9      15     17.2    2.28     -9     -9     -9      0     -9     0.0     0.0      0    -9.00      0.0      0.0      0.0   100    34.5    20.011    48.2    9.641   10.712     100        0.84    0.000    0.000     205.4    205.4    2.28   203.8     965.7     266.5     266.5     153.8     160.5      56.5    0.000     0.000     0.000     0.000     0.000    2.28     0.00    0.00      0   -9.90   -9.00        2.2        7.3        9.5        9.4        9.4        9.4        9.4        9.4        9.4        9.4        9.4        9.4        0.0        0.0        0.0        0.0        0.0        0.0        0.0        0.0        0.0        0.0        0.0        0.0      1.0      11.6      20.5      27.6      34.8    401.01
    28    12  2015    -9     0     209.1    10.8      0.0    0.0   10.8    0.0      0.0      0.0   -9.90     11.0      7.1     64      0.0      0.0   100     11.0     7.1      64     17.6    2.28     -9     -9     -9      0     -9     0.0     0.0      0    -9.00      0.0      0.0      0.0   100    34.5    20.011    48.2    9.641   10.712     100        0.84    0.000    0.000     209.1    209.1    2.28   207.5     965.7     266.5     266.5     146.1     160.5      56.5    0.000     0.000     0.000     0.000     0.000    2.28     0.00    0.00      0   -9.90   -9.00        5.9        7.3        9.5        9.4        9.4        9.4        9.4        9.4        9.4        9.4        9.4        9.4        0.0        0.0        0.0        0.0        0.0        0.0        0.0        0.0        0.0        0.0        0.0        0.0     10.8      10.0      21.2      26.7      32.3    401.01
    29    12  2015    -9     0     208.2     5.3      0.0    0.0    5.3    0.0      0.0      0.0   -9.90     12.6      6.3     50      0.0      0.0   100     12.6     6.3      50     16.3    2.28     -9     -9     -9      0     -9     0.0     0.0      0    -9.00      0.0      0.0      0.0   100    34.5    20.011    48.2    9.641   10.712     100        0.84    0.000    0.000     208.2    208.2    2.28   206.5     965.7     266.5     266.5     152.8     160.5      56.5    0.000     0.000     0.000     0.000     0.000    2.28     0.00    0.00      0   -9.90   -9.00        5.0        7.3        9.5        9.4        9.4        9.4        9.4        9.4        9.4        9.4        9.4        9.4        0.0        0.0        0.0        0.0        0.0        0.0        0.0        0.0        0.0        0.0        0.0        0.0      5.3      11.4      18.6      26.0      33.4    401.01
    30    12  2015    -9     0     209.1     9.2      0.0    0.0    9.2    0.0      0.0      0.0   -9.90     13.3      8.2     62      0.0      0.0   100     13.3     8.2      62     16.0    2.28     -9     -9     -9      0     -9     0.0     0.0      0    -9.00      0.0      0.0      0.0   100    34.5    20.011    48.2    9.641   10.712     100        0.84    0.000    0.000     209.1    209.1    2.28   207.5     965.7     266.5     266.5     156.0     160.5      56.5    0.000     0.000     0.000     0.000     0.000    2.28     0.00    0.00      0   -9.90   -9.00        6.0        7.3        9.5        9.4        9.4        9.4        9.4        9.4        9.4        9.4        9.4        9.4        0.0        0.0        0.0        0.0        0.0        0.0        0.0        0.0        0.0        0.0        0.0        0.0      9.2      12.1      17.9      26.1      34.3    401.01
    31    12  2015    -9     0     209.5     8.5      0.0    0.0    8.5    0.0      0.0      0.0   -9.90     12.0      8.1     67      0.0      0.0   100     12.0     8.1      67     16.5    2.28     -9     -9     -9      0     -9     0.0     0.0      0    -9.00      0.0      0.0      0.0   100    34.5    20.011    48.2    9.641   10.712     100        0.84    0.000    0.000     209.5    209.5    2.28   207.9     965.7     266.5     266.5     150.2     160.5      56.5    0.000     0.000     0.000     0.000     0.000    2.28     0.00    0.00      0   -9.90   -9.00        6.4        7.3        9.5        9.4        9.4        9.4        9.4        9.4        9.4        9.4        9.4        9.4        0.0        0.0        0.0        0.0        0.0        0.0        0.0        0.0        0.0        0.0        0.0        0.0      8.5      10.9      18.9      25.7      32.5    401.01
