AquaCrop 7.1 (August 2023) - Output created on (date) : 16-01-2026   at (time) : 12:17:25

    RunNr     Day1   Month1    Year1     Rain      ETo       GD     CO2      Irri   Infilt   Runoff    Drain   Upflow        E     E/Ex       Tr      TrW   Tr/Trx    SaltIn   SaltOut    SaltUp  SaltProf     Cycle   SaltStr  FertStr  WeedStr  TempStr   ExpStr   StoStr  BioMass  Brelative   HI    Y(dry)  Y(fresh)    WPet      Bin     Bout     DayN   MonthN    YearN
                                           mm       mm  degC.day    ppm        mm       mm       mm       mm       mm       mm        %       mm       mm        %    ton/ha    ton/ha    ton/ha    ton/ha      days       %        %        %        %        %        %    ton/ha        %       %    ton/ha   ton/ha    kg/m3   ton/ha   ton/ha
   Tot(1)        1        7     2011    949.1   2427.8   3120.8   391.85    642.6    948.0      1.1      0.0      0.0    832.8       48    816.9    816.9      100     0.000     0.000     0.000     0.000       89        0       30        0        0        1        0    19.647       98     48.2    9.465   10.517     0.83    0.000    0.000       31       12     2011  cluster_320.PRM
   Tot(2)        1        7     2012    985.5   2427.0   3119.6   394.06    590.0    983.6      1.9      0.0      0.0    806.8       47    824.5    824.5      100     0.000     0.000     0.000     0.000       89        0       30        0        0        0        0    19.904      100     48.1    9.583   10.648     0.83    0.000    0.000       31       12     2012  cluster_320.PRM
   Tot(3)        1        7     2013   1075.5   2427.4   3128.0   396.74    571.8   1071.8      3.7      0.0      0.0    890.2       51    810.7    810.7      100     0.000     0.000     0.000     0.000       89        0       30        0        0        1        0    19.710       98     48.1    9.490   10.544     0.82    0.000    0.000       31       12     2013  cluster_320.PRM
   Tot(4)        1        7     2014   1103.7   2453.6   3129.4   398.81    551.8   1100.6      3.1      0.0      0.0    864.7       50    841.1    841.1      100     0.000     0.000     0.000     0.000       89        0       30        0        0        0        0    19.967      100     48.2    9.619   10.688     0.81    0.000    0.000       31       12     2014  cluster_320.PRM
   Tot(5)        1        7     2015    926.0   2425.7   3123.7   401.01    606.7    924.9      1.0      0.0      0.0    769.0       45    821.7    821.7      100     0.000     0.000     0.000     0.000       89        0       30        0        0        0        0    20.011      100     48.2    9.641   10.712     0.84    0.000    0.000       31       12     2015  cluster_320.PRM
