AquaCrop 7.1 (August 2023) - Output created on (date) : 16-01-2026   at (time) : 12:17:07

    RunNr     Day1   Month1    Year1     Rain      ETo       GD     CO2      Irri   Infilt   Runoff    Drain   Upflow        E     E/Ex       Tr      TrW   Tr/Trx    SaltIn   SaltOut    SaltUp  SaltProf     Cycle   SaltStr  FertStr  WeedStr  TempStr   ExpStr   StoStr  BioMass  Brelative   HI    Y(dry)  Y(fresh)    WPet      Bin     Bout     DayN   MonthN    YearN
                                           mm       mm  degC.day    ppm        mm       mm       mm       mm       mm       mm        %       mm       mm        %    ton/ha    ton/ha    ton/ha    ton/ha      days       %        %        %        %        %        %    ton/ha        %       %    ton/ha   ton/ha    kg/m3   ton/ha   ton/ha
   Tot(1)        1        7     2011   1100.8   2413.7   3130.8   391.85    533.6   1095.9      4.9      0.0      0.0    863.1       50    820.3    820.3      100     0.000     0.000     0.000     0.000       89        0       30        0        0        1        0    19.687       99     48.1    9.479   10.532     0.82    0.000    0.000       31       12     2011  cluster_119.PRM
   Tot(2)        1        7     2012   1117.8   2428.0   3123.2   394.06    515.8   1114.8      3.0      0.0      0.0    861.6       50    821.3    821.3      100     0.000     0.000     0.000     0.000       89        0       30        0        0        1        0    19.740       99     48.2    9.510   10.567     0.82    0.000    0.000       31       12     2012  cluster_119.PRM
   Tot(3)        1        7     2013   1072.6   2423.2   3134.1   396.74    521.2   1070.0      2.6      0.0      0.0    817.4       47    817.2    817.2      100     0.000     0.000     0.000     0.000       89        0       30        0        0        1        0    19.687       98     48.2    9.485   10.538     0.83    0.000    0.000       31       12     2013  cluster_119.PRM
   Tot(4)        1        7     2014   1080.0   2438.9   3118.5   398.81    572.9   1077.7      2.3      0.0      0.0    865.7       50    836.1    836.1      100     0.000     0.000     0.000     0.000       89        0       30        0        0        0        0    19.958      100     48.2    9.615   10.683     0.82    0.000    0.000       31       12     2014  cluster_119.PRM
   Tot(5)        1        7     2015   1070.1   2427.4   3125.9   401.01    586.5   1066.8      3.3      0.1      0.0    881.1       51    827.6    827.6      100     0.000     0.000     0.000     0.000       89        0       30        0        0        0        0    19.961      100     48.2    9.616   10.685     0.82    0.000    0.000       31       12     2015  cluster_119.PRM
