AquaCrop 7.1 (August 2023) - Output created on (date) : 16-01-2026   at (time) : 12:17:07

   Run:   1
   Day Month  Year   DAP Stage   WC(2.30)   Rain     Irri   Surf   Infilt   RO    Drain       CR    Zgwt       Ex       E     E/Ex     Trx       Tr  Tr/Trx    ETx      ET  ET/ETx      GD       Z     StExp  StSto  StSen StSalt StWeed   CC      CCw     StTr  Kc(Tr)     Trx       Tr      TrW  Tr/Trx   WP    Biomass     HI    Y(dry)  Y(fresh)  Brelative    WPet      Bin     Bout  WC(2.30) Wr(2.30)     Z       Wr    Wr(SAT)    Wr(FC)   Wr(exp)   Wr(sto)   Wr(sen)   Wr(PWP)    SaltIn    SaltOut   SaltUp   Salt(2.30)  SaltZ     Z       ECe    ECsw   StSalt  Zgwt    ECgw       WC01       WC 2       WC 3       WC 4       WC 5       WC 6       WC 7       WC 8       WC 9       WC10       WC11       WC12      ECe01      ECe 2      ECe 3      ECe 4      ECe 5      ECe 6      ECe 7      ECe 8      ECe 9      ECe10      ECe11      ECe12     Rain       ETo      Tmin      Tavg      Tmax      CO2
                                      mm      mm       mm     mm     mm     mm       mm       mm      m        mm       mm     %        mm       mm    %        mm      mm       %  degC-day     m       %      %      %      %      %      %       %       %       -        mm       mm       mm    %     g/m2    ton/ha      %    ton/ha   ton/ha       %       kg/m3   ton/ha   ton/ha      mm       mm       m       mm        mm        mm        mm        mm        mm         mm    ton/ha    ton/ha    ton/ha    ton/ha    ton/ha     m      dS/m    dS/m      %     m      dS/m       0.05       0.18       0.33       0.48       0.63       0.80       1.00       1.20       1.43       1.68       1.93       2.18       0.05       0.18       0.33       0.48       0.63       0.80       1.00       1.20       1.43       1.68       1.93       2.18       mm        mm     degC      degC      degC       ppm
     1     7  2011     1     1     265.7     6.9      0.0    0.0    6.9    0.0      0.0      0.0   -9.90     15.6      9.8     63      0.0      0.0   100     15.6     9.8      63     16.3    0.30     -9     -9     -9      0     -9     0.0     0.0      0    -9.00      0.0      0.0      0.0   100     0.0     0.000    -9.9    0.000    0.000      -9        0.00    0.000    0.000     265.7    265.7    0.30    31.7     125.1      34.6      30.7      21.4      15.5       6.9    0.000     0.000     0.000     0.000     0.000    0.30     0.00    0.00      0   -9.90   -9.00        8.7       11.7       11.7       11.7       11.7       11.7       11.7       11.7       11.7       11.7       11.7       11.7        0.0        0.0        0.0        0.0        0.0        0.0        0.0        0.0        0.0        0.0        0.0        0.0      6.9      14.2      18.5      25.5      32.5    391.85
     2     7  2011     2     1     260.1     0.7      0.0    0.0    0.7    0.0      0.0      0.0   -9.90     15.5      6.2     40      0.0      0.0   100     15.5     6.2      40     17.6    0.30     -9     -9     -9      0     -9     0.0     0.0      0    -9.00      0.0      0.0      0.0   100     0.0     0.000    -9.9    0.000    0.000      -9        0.00    0.000    0.000     260.1    260.1    0.30    26.1     125.1      34.6      30.7      21.3      15.5       6.9    0.000     0.000     0.000     0.000     0.000    0.30     0.00    0.00      0   -9.90   -9.00        3.1       11.7       11.7       11.7       11.7       11.7       11.7       11.7       11.7       11.7       11.7       11.7        0.0        0.0        0.0        0.0        0.0        0.0        0.0        0.0        0.0        0.0        0.0        0.0      0.7      14.1      21.2      27.5      33.8    391.85
     3     7  2011     3     1     260.9     9.9      0.0    0.0    9.9    0.0      0.0      0.0   -9.90     16.4      9.1     56      0.0      0.0   100     16.4     9.1      56     18.1    0.30     -9     -9     -9      0     -9     0.0     0.0      0    -9.00      0.0      0.0      0.0   100     0.0     0.000    -9.9    0.000    0.000      -9        0.00    0.000    0.000     260.9    260.9    0.30    26.9     125.1      34.6      30.7      21.8      15.5       6.9    0.000     0.000     0.000     0.000     0.000    0.30     0.00    0.00      0   -9.90   -9.00        3.9       11.7       11.7       11.7       11.7       11.7       11.7       11.7       11.7       11.7       11.7       11.7        0.0        0.0        0.0        0.0        0.0        0.0        0.0        0.0        0.0        0.0        0.0        0.0      9.9      14.9      22.2      28.9      35.5    391.85
     4     7  2011     4     1     258.7     2.1      0.0    0.0    2.1    0.0      0.0      0.0   -9.90     15.1      4.4     29      0.0      0.0   100     15.1     4.4      29     17.4    0.30     -9     -9     -9      0     -9     0.0     0.0      0    -9.00      0.0      0.0      0.0   100     0.0     0.000    -9.9    0.000    0.000      -9        0.00    0.000    0.000     258.7    258.7    0.30    24.7     125.1      34.6      30.7      21.1      15.5       6.9    0.000     0.000     0.000     0.000     0.000    0.30     0.00    0.00      0   -9.90   -9.00        1.6       11.7       11.7       11.7       11.7       11.7       11.7       11.7       11.7       11.7       11.7       11.7        0.0        0.0        0.0        0.0        0.0        0.0        0.0        0.0        0.0        0.0        0.0        0.0      2.1      13.7      20.8      26.9      33.0    391.85
     5     7  2011     5     1     259.6     8.3      0.0    0.0    8.3    0.0      0.0      0.0   -9.90     15.5      7.4     48      0.0      0.0   100     15.5     7.4      48     17.2    0.32     -9     -9     -9      0     -9     0.0     0.0      0    -9.00      0.0      0.0      0.0   100     0.0     0.000    -9.9    0.000    0.000      -9        0.00    0.000    0.000     259.6    259.6    0.32    27.9     133.5      36.9      32.8      22.8      16.5       7.4    0.000     0.000     0.000     0.000     0.000    0.32     0.00    0.00      0   -9.90   -9.00        2.5       11.7       11.7       11.7       11.7       11.7       11.7       11.7       11.7       11.7       11.7       11.7        0.0        0.0        0.0        0.0        0.0        0.0        0.0        0.0        0.0        0.0        0.0        0.0      8.3      14.1      20.5      27.0      33.4    391.85
     6     7  2011     6     1     258.0     3.6      0.0    0.0    3.6    0.0      0.0      0.0   -9.90     17.3      5.2     30      0.0      0.0   100     17.3     5.2      30     17.2    0.36     -9     -9     -9      0     -9     0.0     0.0      0    -9.00      0.0      0.0      0.0   100     0.0     0.000    -9.9    0.000    0.000      -9        0.00    0.000    0.000     258.0    258.0    0.36    31.0     150.6      41.6      37.0      26.9      18.7       8.4    0.000     0.000     0.000     0.000     0.000    0.36     0.00    0.00      0   -9.90   -9.00        1.2       11.5       11.7       11.7       11.7       11.7       11.7       11.7       11.7       11.7       11.7       11.7        0.0        0.0        0.0        0.0        0.0        0.0        0.0        0.0        0.0        0.0        0.0        0.0      3.6      15.7      20.4      28.1      35.7    391.85
     7     7  2011     7     2     260.3     1.2      3.7    0.0    1.2    0.0      0.0      0.0   -9.90     16.6      2.5     15      0.1      0.1   100     16.8     2.6      15     17.3    0.40     -9      0      0      0      0     0.4     0.4      0     0.01      0.1      0.1      0.1   100    34.3     0.003    -9.9    0.000    0.000     100        0.00    0.000    0.000     260.3    260.3    0.40    37.7     166.4      46.0      46.0      29.4      29.4       9.3    0.000     0.000     0.000     0.000     0.000    0.40     0.00    0.00      0   -9.90   -9.00        9.6        9.6        9.7       11.7       11.7       11.7       11.7       11.7       11.7       11.7       11.7       11.7        0.0        0.0        0.0        0.0        0.0        0.0        0.0        0.0        0.0        0.0        0.0        0.0      1.2      15.2      20.5      27.8      35.1    391.85
     8     7  2011     8     2     262.4    12.2      0.0    0.0   12.1    0.1      0.0      0.0   -9.90     14.6      9.8     68      0.1      0.1   100     14.7    10.0      68     17.4    0.43     -9      0      0      0      0     0.5     0.5      0     0.01      0.1      0.1      0.1   100    34.3     0.006    -9.9    0.000    0.000     100        0.00    0.000    0.000     262.4    262.4    0.43    43.9     181.2      50.1      50.1      30.3      30.3      10.2    0.000     0.000     0.000     0.000     0.000    0.43     0.00    0.00      0   -9.90   -9.00       11.7        9.6        9.7       11.7       11.7       11.7       11.7       11.7       11.7       11.7       11.7       11.7        0.0        0.0        0.0        0.0        0.0        0.0        0.0        0.0        0.0        0.0        0.0        0.0     12.2      13.4      20.8      26.7      32.6    391.85
     9     7  2011     9     2     258.8     6.0      0.3    0.0    6.0    0.0      0.0      0.0   -9.90     16.4      9.8     59      0.2      0.2   100     16.6     9.9      60     17.3    0.47      0      0      0      0      0     0.6     0.6      0     0.01      0.2      0.2      0.2   100    34.3     0.010    -9.9    0.000    0.000     100        0.00    0.000    0.000     258.8    258.8    0.47    45.0     195.4      54.0      54.0      34.4      34.4      11.0    0.000     0.000     0.000     0.000     0.000    0.47     0.00    0.00      0   -9.90   -9.00        9.6        9.6        9.6       10.8       11.7       11.7       11.7       11.7       11.7       11.7       11.7       11.7        0.0        0.0        0.0        0.0        0.0        0.0        0.0        0.0        0.0        0.0        0.0        0.0      6.0      15.1      20.6      27.7      34.9    391.85
    10     7  2011    10     2     257.8     4.7      3.8    0.0    4.7    0.0      0.0      0.0   -9.90     16.8      9.3     55      0.2      0.2   100     17.0     9.5      56     16.6    0.50      0      0      0      0      0     0.7     0.7      0     0.01      0.2      0.2      0.2   100    34.3     0.014    -9.9    0.000    0.000     100        0.00    0.000    0.000     257.8    257.8    0.50    47.9     209.1      57.8      57.8      37.2      37.2      11.9    0.000     0.000     0.000     0.000     0.000    0.50     0.00    0.00      0   -9.90   -9.00        9.6        9.6        9.6       10.0       11.7       11.7       11.7       11.7       11.7       11.7       11.7       11.7        0.0        0.0        0.0        0.0        0.0        0.0        0.0        0.0        0.0        0.0        0.0        0.0      4.7      15.4      19.2      26.9      34.7    391.85
    11     7  2011    11     2     257.1     4.0      4.5    0.0    4.0    0.0      0.0      0.0   -9.90     16.4      9.0     55      0.2      0.2   100     16.6     9.2      55     16.0    0.53      0      0      0      0      0     0.8     0.8      0     0.02      0.2      0.2      0.2   100    34.3     0.019    -9.9    0.000    0.000     100        0.00    0.000    0.000     257.1    257.1    0.53    50.4     222.3      61.4      61.4      39.2      39.2      12.6    0.000     0.000     0.000     0.000     0.000    0.53     0.00    0.00      0   -9.90   -9.00        9.6        9.6        9.6        9.7       11.7       11.7       11.7       11.7       11.7       11.7       11.7       11.7        0.0        0.0        0.0        0.0        0.0        0.0        0.0        0.0        0.0        0.0        0.0        0.0      4.0      15.1      18.0      25.8      33.7    391.85
    12     7  2011    12     2     257.2     7.0      3.0    0.0    7.0    0.0      0.0      0.0   -9.90     17.0      9.6     56      0.3      0.3   100     17.3     9.9      57     16.6    0.56      0      0      0      0      0     1.0     1.0      0     0.02      0.3      0.3      0.3   100    34.3     0.025    -9.9    0.000    0.000     100        0.00    0.000    0.000     257.2    257.2    0.56    53.8     235.2      65.0      65.0      42.2      42.2      13.4    0.000     0.000     0.000     0.000     0.000    0.56     0.00    0.00      0   -9.90   -9.00        9.6        9.6        9.7        9.7       11.6       11.7       11.7       11.7       11.7       11.7       11.7       11.7        0.0        0.0        0.0        0.0        0.0        0.0        0.0        0.0        0.0        0.0        0.0        0.0      7.0      15.8      19.1      27.1      35.2    391.85
    13     7  2011    13     2     256.1     7.4      1.4    0.0    7.4    0.0      0.0      0.0   -9.90     16.3      9.6     59      0.3      0.3   100     16.6     9.9      60     17.1    0.59      0      0      0      0      0     1.2     1.2      0     0.02      0.3      0.3      0.3   100    34.3     0.032    -9.9    0.000    0.000     100        0.00    0.000    0.000     256.1    256.1    0.59    56.6     247.7      68.4      68.4      43.7      43.7      14.1    0.000     0.000     0.000     0.000     0.000    0.59     0.00    0.00      0   -9.90   -9.00        9.6        9.6        9.6        9.6       11.1       11.7       11.7       11.7       11.7       11.7       11.7       11.7        0.0        0.0        0.0        0.0        0.0        0.0        0.0        0.0        0.0        0.0        0.0        0.0      7.4      15.1      20.2      27.5      34.8    391.85
    14     7  2011    14     2     258.6    13.8      0.0    0.0   13.6    0.2      0.0      0.0   -9.90     16.8     10.7     64      0.4      0.4   100     17.2    11.1      65     16.9    0.62      0      0      0      0      0     1.4     1.4      0     0.02      0.4      0.4      0.4   100    34.3     0.041    -9.9    0.000    0.000     100        0.00    0.000    0.000     258.6    258.6    0.62    62.3     259.9      71.8      71.8      46.5      46.5      14.8    0.000     0.000     0.000     0.000     0.000    0.62     0.00    0.00      0   -9.90   -9.00       12.1        9.6        9.6        9.6       11.1       11.7       11.7       11.7       11.7       11.7       11.7       11.7        0.0        0.0        0.0        0.0        0.0        0.0        0.0        0.0        0.0        0.0        0.0        0.0     13.8      15.6      19.8      27.5      35.2    391.85
    15     7  2011    15     2     255.0     2.0      2.9    0.0    2.0    0.0      0.0      0.0   -9.90     16.7      8.0     48      0.5      0.5   100     17.2     8.5      49     17.2    0.65      0      0      0      0      0     1.6     1.6      0     0.03      0.5      0.5      0.5   100    34.3     0.051    -9.9    0.000    0.000     100        0.00    0.000    0.000     255.0    255.0    0.65    62.4     271.9      75.1      75.1      48.7      48.7      15.6    0.000     0.000     0.000     0.000     0.000    0.65     0.00    0.00      0   -9.90   -9.00        9.6        9.6        9.7        9.7       10.2       11.7       11.7       11.7       11.7       11.7       11.7       11.7        0.0        0.0        0.0        0.0        0.0        0.0        0.0        0.0        0.0        0.0        0.0        0.0      2.0      15.7      20.4      28.0      35.6    391.85
    16     7  2011    16     2     252.3     1.9      2.5    0.0    1.9    0.0      0.0      0.0   -9.90     13.5      6.7     50      0.4      0.4   100     14.0     7.2      51     17.0    0.67      1      0      0      0      0     1.9     1.9      0     0.03      0.4      0.4      0.4   100    34.3     0.063    -9.9    0.000    0.000     100        0.00    0.000    0.000     252.3    252.3    0.67    62.6     283.6      78.3      78.3      46.6      46.6      16.2    0.000     0.000     0.000     0.000     0.000    0.67     0.00    0.00      0   -9.90   -9.00        9.3        9.3        9.3        9.3        9.5       11.7       11.7       11.7       11.7       11.7       11.7       11.7        0.0        0.0        0.0        0.0        0.0        0.0        0.0        0.0        0.0        0.0        0.0        0.0      1.9      12.7      20.0      25.6      31.2    391.85
    17     7  2011    17     2     254.3     6.0      6.0    0.0    6.0    0.0      0.0      0.0   -9.90     16.6      9.4     56      0.6      0.6   100     17.2    10.0      58     17.5    0.70      0      0      0      0      0     2.3     2.3      0     0.04      0.6      0.6      0.6   100    34.3     0.076    -9.9    0.000    0.000     100        0.00    0.000    0.000     254.3    254.3    0.70    67.2     295.2      81.5      81.5      52.9      52.9      16.9    0.000     0.000     0.000     0.000     0.000    0.70     0.00    0.00      0   -9.90   -9.00        9.6        9.6        9.7        9.7        9.7       11.7       11.7       11.7       11.7       11.7       11.7       11.7        0.0        0.0        0.0        0.0        0.0        0.0        0.0        0.0        0.0        0.0        0.0        0.0      6.0      15.7      21.1      28.6      36.0    391.85
    18     7  2011    18     2     253.6     7.2      2.5    0.0    7.2    0.0      0.0      0.0   -9.90     16.3      9.7     59      0.7      0.7   100     17.0    10.4      61     15.4    0.73      0      0      0      0      0     2.7     2.7      0     0.05      0.7      0.7      0.7   100    34.3     0.093    -9.9    0.000    0.000     100        0.00    0.000    0.000     253.6    253.6    0.73    70.2     306.5      84.6      84.6      54.7      54.7      17.6    0.000     0.000     0.000     0.000     0.000    0.73     0.00    0.00      0   -9.90   -9.00        9.6        9.6        9.6        9.6        9.6       11.4       11.7       11.7       11.7       11.7       11.7       11.7        0.0        0.0        0.0        0.0        0.0        0.0        0.0        0.0        0.0        0.0        0.0        0.0      7.2      15.5      16.8      25.2      33.7    391.85
    19     7  2011    19     2     251.9     2.6      4.1    0.0    2.6    0.0      0.0      0.0   -9.90     15.1      7.6     50      0.8      0.8   100     16.0     8.4      53     16.7    0.75      0      0      0      0      0     3.2     3.2      0     0.06      0.8      0.8      0.8   100    34.3     0.112    -9.9    0.000    0.000     100        0.00    0.000    0.000     251.9    251.9    0.75    72.2     317.7      87.7      87.7      55.1      55.1      18.3    0.000     0.000     0.000     0.000     0.000    0.75     0.00    0.00      0   -9.90   -9.00        9.5        9.5        9.5        9.5        9.5       10.9       11.7       11.7       11.7       11.7       11.7       11.7        0.0        0.0        0.0        0.0        0.0        0.0        0.0        0.0        0.0        0.0        0.0        0.0      2.6      14.5      19.4      26.4      33.5    391.85
    20     7  2011    20     2     250.7     4.8      3.9    0.0    4.8    0.0      0.0      0.0   -9.90     14.9      8.9     60      0.9      0.9   100     15.9     9.8      62     16.7    0.78      0      0      0      0      0     3.7     3.7      0     0.07      0.9      0.9      0.9   100    34.3     0.134    -9.9    0.000    0.000     100        0.00    0.000    0.000     250.7    250.7    0.78    74.5     328.7      90.8      90.8      56.9      56.9      18.9    0.000     0.000     0.000     0.000     0.000    0.78     0.00    0.00      0   -9.90   -9.00        9.5        9.5        9.5        9.5        9.5       10.4       11.7       11.7       11.7       11.7       11.7       11.7        0.0        0.0        0.0        0.0        0.0        0.0        0.0        0.0        0.0        0.0        0.0        0.0      4.8      14.5      19.5      26.4      33.4    391.85
    21     7  2011    21     2     249.2     7.8      0.8    0.0    7.8    0.0      0.0      0.0   -9.90     14.0      9.1     65      1.1      1.1   100     15.0    10.2      68     18.1    0.81      0      0      0      0      0     4.4     4.4      0     0.08      1.1      1.1      1.1   100    34.3     0.160    -9.9    0.000    0.000     100        0.00    0.000    0.000     249.2    249.2    0.81    76.1     339.6      93.8      93.8      57.5      57.5      19.5    0.000     0.000     0.000     0.000     0.000    0.81     0.00    0.00      0   -9.90   -9.00        9.4        9.4        9.5        9.5        9.5        9.9       11.7       11.7       11.7       11.7       11.7       11.7        0.0        0.0        0.0        0.0        0.0        0.0        0.0        0.0        0.0        0.0        0.0        0.0      7.8      13.7      22.3      28.1      33.9    391.85
    22     7  2011    22     2     248.6     0.6      5.7    0.0    0.6    0.0      0.0      0.0   -9.90     13.7      5.8     42      1.2      1.2   100     14.9     7.0      47     17.0    0.83     10      0      0      0      0     5.1     5.1      0     0.09      1.2      1.2      1.2   100    34.3     0.191    -9.9    0.000    0.000     100        0.00    0.000    0.000     248.6    248.6    0.83    78.2     350.3      96.7      96.7      59.2      59.2      20.2    0.000     0.000     0.000     0.000     0.000    0.83     0.00    0.00      0   -9.90   -9.00        9.4        9.4        9.4        9.4        9.4        9.6       11.7       11.7       11.7       11.7       11.7       11.7        0.0        0.0        0.0        0.0        0.0        0.0        0.0        0.0        0.0        0.0        0.0        0.0      0.6      13.6      20.0      26.2      32.5    391.85
    23     7  2011    23     2     248.9     8.0      3.0    0.0    8.0    0.0      0.0      0.0   -9.90     14.1      9.2     65      1.5      1.5   100     15.6    10.6      68     17.4    0.86      0      0      0      0      0     6.0     6.0      0     0.10      1.5      1.5      1.5   100    34.3     0.227    -9.9    0.000    0.000      99        0.00    0.000    0.000     248.9    248.9    0.86    80.9     360.9      99.7      99.7      62.1      62.1      20.8    0.000     0.000     0.000     0.000     0.000    0.86     0.00    0.00      0   -9.90   -9.00        9.5        9.5        9.5        9.5        9.5        9.5       11.7       11.7       11.7       11.7       11.7       11.7        0.0        0.0        0.0        0.0        0.0        0.0        0.0        0.0        0.0        0.0        0.0        0.0      8.0      14.2      20.8      27.3      33.8    391.85
    24     7  2011    24     2     249.7     5.8      5.8    0.0    5.8    0.0      0.0      0.0   -9.90     14.7      9.0     61      1.8      1.8   100     16.6    10.8      65     16.2    0.88      0      0      0      0      0     7.1     7.1      0     0.12      1.8      1.8      1.8   100    34.3     0.268    -9.9    0.000    0.000      99        0.00    0.000    0.000     249.7    249.7    0.88    84.1     371.4     102.5     102.5      65.6      65.6      21.4    0.000     0.000     0.000     0.000     0.000    0.88     0.00    0.00      0   -9.90   -9.00        9.6        9.6        9.6        9.6        9.6        9.6       11.7       11.7       11.7       11.7       11.7       11.7        0.0        0.0        0.0        0.0        0.0        0.0        0.0        0.0        0.0        0.0        0.0        0.0      5.8      15.1      18.3      26.1      33.8    391.85
    25     7  2011    25     2     249.5     0.7      7.0    0.0    0.7    0.0      0.0      0.0   -9.90     14.2      5.8     41      2.1      2.1   100     16.4     7.9      48     17.2    0.91      8      0      0      0      0     8.2     8.2      0     0.14      2.1      2.1      2.1   100    34.3     0.317    -9.9    0.000    0.000      99        0.00    0.000    0.000     249.5    249.5    0.91    86.4     381.7     105.4     105.4      67.1      67.1      22.0    0.000     0.000     0.000     0.000     0.000    0.91     0.00    0.00      0   -9.90   -9.00        9.5        9.5        9.6        9.6        9.6        9.6       11.6       11.7       11.7       11.7       11.7       11.7        0.0        0.0        0.0        0.0        0.0        0.0        0.0        0.0        0.0        0.0        0.0        0.0      0.7      15.0      20.5      27.6      34.7    391.85
    26     7  2011    26     2     253.5    16.2      0.0    0.0   15.9    0.3      0.0      0.0   -9.90     13.0      9.5     73      2.3      2.3   100     15.3    11.8      77     17.0    0.93      0      0      0      0      0     9.7     9.7      0     0.16      2.3      2.3      2.3   100    34.3     0.373    -9.9    0.000    0.000      99        0.00    0.000    0.000     253.5    253.5    0.93    93.2     392.0     108.2     108.2      67.1      67.1      22.6    0.000     0.000     0.000     0.000     0.000    0.93     0.00    0.00      0   -9.90   -9.00       13.7        9.5        9.6        9.6        9.6        9.6       11.6       11.7       11.7       11.7       11.7       11.7        0.0        0.0        0.0        0.0        0.0        0.0        0.0        0.0        0.0        0.0        0.0        0.0     16.2      14.0      19.9      26.5      33.0    391.85
    27     7  2011    27     2     246.7     3.6      0.0    0.0    3.6    0.0      0.0      0.0   -9.90     11.6      7.8     67      2.5      2.5   100     14.1    10.3      73     17.8    0.95      0      0      0      0      0    11.5    11.5      0     0.19      2.5      2.5      2.5   100    34.3     0.440    -9.9    0.000    0.000      98        0.00    0.000    0.000     246.7    246.7    0.95    89.3     402.2     111.0     111.0      66.6      66.6      23.2    0.000     0.000     0.000     0.000     0.000    0.95     0.00    0.00      0   -9.90   -9.00        5.1       10.7        9.6        9.6        9.6        9.6       11.6       11.7       11.7       11.7       11.7       11.7        0.0        0.0        0.0        0.0        0.0        0.0        0.0        0.0        0.0        0.0        0.0        0.0      3.6      12.9      21.6      27.0      32.5    391.85
    28     7  2011    28     2     247.0     4.5      5.2    0.0    4.5    0.0      0.0      0.0   -9.90     12.3      6.2     51      3.1      3.1   100     15.4     9.4      61     16.9    0.98     11      0      0      0      0    13.3    13.3      0     0.22      3.1      3.1      3.1   100    34.3     0.515    -9.9    0.000    0.000      98        0.00    0.000    0.000     247.0    247.0    0.98    93.3     412.2     113.8     113.8      70.8      70.8      23.8    0.000     0.000     0.000     0.000     0.000    0.98     0.00    0.00      0   -9.90   -9.00        9.5        9.5        9.5        9.5        9.5        9.5       10.8       11.7       11.7       11.7       11.7       11.7        0.0        0.0        0.0        0.0        0.0        0.0        0.0        0.0        0.0        0.0        0.0        0.0      4.5      14.2      19.7      26.4      33.1    391.85
    29     7  2011    29     2     246.7    10.2      2.2    0.0   10.2    0.0      0.0      0.0   -9.90     12.5      8.9     71      3.9      3.9   100     16.4    12.8      78     17.1    1.00      0      0      0      0      0    15.7    15.7      0     0.26      3.9      3.9      3.9   100    34.3     0.603    -9.9    0.000    0.000      98        0.00    0.000    0.000     246.7    246.7    1.00    96.1     422.2     116.6     116.6      74.5      74.5      24.4    0.000     0.000     0.000     0.000     0.000    1.00     0.00    0.00      0   -9.90   -9.00        9.6        9.6        9.6        9.6        9.6        9.6       10.2       11.7       11.7       11.7       11.7       11.7        0.0        0.0        0.0        0.0        0.0        0.0        0.0        0.0        0.0        0.0        0.0        0.0     10.2      15.1      20.3      27.5      34.7    391.85
    30     7  2011    30     2     246.3     1.2      8.8    0.0    1.2    0.0      0.0      0.0   -9.90     12.2      5.8     48      4.6      4.6   100     16.7    10.4      62     16.5    1.02      5      0      0      0      0    18.3    18.3      0     0.30      4.6      4.6      4.6   100    34.3     0.705    -9.9    0.000    0.000      97        0.00    0.000    0.000     246.3    246.3    1.02    98.4     432.0     119.3     119.3      77.0      77.0      25.0    0.000     0.000     0.000     0.000     0.000    1.02     0.00    0.00      0   -9.90   -9.00        9.6        9.6        9.6        9.6        9.6        9.6        9.9       11.7       11.7       11.7       11.7       11.7        0.0        0.0        0.0        0.0        0.0        0.0        0.0        0.0        0.0        0.0        0.0        0.0      1.2      15.4      19.0      26.8      34.6    391.85
    31     7  2011    31     2     243.5     5.3      3.6    0.0    5.3    0.0      0.0      0.0   -9.90      9.7      7.3     75      4.5      4.5   100     14.3    11.8      83     17.5    1.05      0      0      0      0      0    21.6    21.6      0     0.34      4.5      4.5      4.5   100    34.3     0.822    -9.9    0.000    0.000      97        0.00    0.000    0.000     243.5    243.5    1.05    98.0     441.8     122.0     122.0      73.7      73.7      25.6    0.000     0.000     0.000     0.000     0.000    1.05     0.00    0.00      0   -9.90   -9.00        9.3        9.3        9.4        9.4        9.4        9.4        9.5       11.7       11.7       11.7       11.7       11.7        0.0        0.0        0.0        0.0        0.0        0.0        0.0        0.0        0.0        0.0        0.0        0.0      5.3      13.2      21.1      26.8      32.5    391.85
     1     8  2011    32     2     244.9     3.7     10.7    0.0    3.7    0.0      0.0      0.0   -9.90     10.0      7.2     72      5.8      5.8   100     15.8    13.0      82     17.2    1.07      0      0      0      0      0    25.5    25.5      0     0.40      5.8      5.8      5.8   100    34.3     0.958    -9.9    0.000    0.000      97        0.00    0.000    0.000     244.9    244.9    1.07   101.7     451.5     124.7     124.7      78.6      78.6      26.1    0.000     0.000     0.000     0.000     0.000    1.07     0.00    0.00      0   -9.90   -9.00        9.5        9.5        9.6        9.6        9.6        9.6        9.5       11.7       11.7       11.7       11.7       11.7        0.0        0.0        0.0        0.0        0.0        0.0        0.0        0.0        0.0        0.0        0.0        0.0      3.7      14.6      20.4      27.2      34.1    391.85
     2     8  2011    33     2     244.9     1.2     10.4    0.0    1.2    0.0      0.0      0.0   -9.90      9.1      5.0     55      6.6      6.6   100     15.7    11.6      74     17.1    1.09      5      0      0      0      0    29.9    29.9      0     0.45      6.6      6.6      6.6   100    34.3     1.112    -9.9    0.000    0.000      96        0.00    0.000    0.000     244.9    244.9    1.09   103.8     461.2     127.3     127.3      80.3      80.3      26.7    0.000     0.000     0.000     0.000     0.000    1.09     0.00    0.00      0   -9.90   -9.00        9.5        9.5        9.5        9.5        9.5        9.5        9.5       11.7       11.7       11.7       11.7       11.7        0.0        0.0        0.0        0.0        0.0        0.0        0.0        0.0        0.0        0.0        0.0        0.0      1.2      14.6      20.3      27.2      34.0    391.85
     3     8  2011    34     2     244.7     1.8     10.7    0.0    1.8    0.0      0.0      0.0   -9.90      8.2      5.2     63      7.6      7.6   100     15.7    12.7      81     17.1    1.12      1      0      0      0      0    35.1    35.1      0     0.52      7.6      7.6      7.6   100    34.3     1.289    -9.9    0.000    0.000      96        0.00    0.000    0.000     244.7    244.7    1.12   106.3     470.7     130.0     130.0      82.1      82.1      27.3    0.000     0.000     0.000     0.000     0.000    1.12     0.00    0.00      0   -9.90   -9.00        9.5        9.5        9.6        9.6        9.6        9.6        9.6       11.5       11.7       11.7       11.7       11.7        0.0        0.0        0.0        0.0        0.0        0.0        0.0        0.0        0.0        0.0        0.0        0.0      1.8      14.7      20.3      27.2      34.1    391.85
     4     8  2011    35     2     243.7     6.6      7.1    0.0    6.6    0.0      0.0      0.0   -9.90      7.0      6.2     89      8.5      8.5   100     15.5    14.7      95     17.4    1.14      0      0      0      0      0    41.4    41.4      0     0.59      8.5      8.5      8.5   100    34.3     1.490    -9.9    0.000    0.000      96        0.00    0.000    0.000     243.7    243.7    1.14   108.6     480.2     132.6     132.6      83.4      83.4      27.8    0.000     0.000     0.000     0.000     0.000    1.14     0.00    0.00      0   -9.90   -9.00        9.5        9.5        9.5        9.5        9.5        9.5        9.5       11.2       11.7       11.7       11.7       11.7        0.0        0.0        0.0        0.0        0.0        0.0        0.0        0.0        0.0        0.0        0.0        0.0      6.6      14.5      20.9      27.5      34.2    391.85
     5     8  2011    36     2     242.1     4.9      8.2    0.0    4.9    0.0      0.0      0.0   -9.90      5.6      5.3     96      9.3      9.3   100     14.9    14.6      98     17.3    1.16      0      0      0      0      0    48.8    48.8      0     0.66      9.3      9.3      9.3   100    34.3     1.718    -9.9    0.000    0.000      96        0.00    0.000    0.000     242.1    242.1    1.16   110.2     489.6     135.2     135.2      83.7      83.7      28.4    0.000     0.000     0.000     0.000     0.000    1.16     0.00    0.00      0   -9.90   -9.00        9.4        9.4        9.5        9.5        9.5        9.5        9.5       10.7       11.7       11.7       11.7       11.7        0.0        0.0        0.0        0.0        0.0        0.0        0.0        0.0        0.0        0.0        0.0        0.0      4.9      14.0      20.7      27.0      33.4    391.85
     6     8  2011    37     2     242.6     9.7      6.7    0.0    9.7    0.0      0.0      0.0   -9.90      5.0      4.9     98     11.1     11.1   100     16.0    15.9      99     17.1    1.18      0      0      0      0      0    55.9    55.9      0     0.73     11.1     11.1     11.1   100    34.3     1.969    -9.9    0.000    0.000      96        0.00    0.000    0.000     242.6    242.6    1.18   113.5     499.0     137.8     137.8      88.2      88.2      28.9    0.000     0.000     0.000     0.000     0.000    1.18     0.00    0.00      0   -9.90   -9.00        9.6        9.6        9.6        9.6        9.6        9.6        9.6       10.2       11.7       11.7       11.7       11.7        0.0        0.0        0.0        0.0        0.0        0.0        0.0        0.0        0.0        0.0        0.0        0.0      9.7      15.1      20.1      27.4      34.7    391.85
     7     8  2011    38     2     243.5     6.0     12.2    0.0    6.0    0.0      0.0      0.0   -9.90      4.5      4.4     99     12.9     12.9   100     17.3    17.3     100     16.4    1.20      0      0      0      0      0    61.9    61.9      0     0.79     12.9     12.9     12.9   100    34.3     2.238    -9.9    0.000    0.000      96        0.00    0.000    0.000     243.5    243.5    1.20   116.9     508.3     140.3     140.3      93.0      93.0      29.5    0.000     0.000     0.000     0.000     0.000    1.20     0.00    0.00      0   -9.90   -9.00        9.7        9.7        9.7        9.7        9.7        9.7        9.7       10.0       11.7       11.7       11.7       11.7        0.0        0.0        0.0        0.0        0.0        0.0        0.0        0.0        0.0        0.0        0.0        0.0      6.0      16.4      18.9      27.4      36.0    391.85
     8     8  2011    39     2     242.1     1.5     13.1    0.0    1.5    0.0      0.0      0.0   -9.90      3.5      3.1     88     12.9     12.9   100     16.4    16.0      97     16.8    1.23      2      0      0      0      0    66.8    66.8      0     0.83     12.9     12.9     12.9   100    34.3     2.522    -9.9    0.000    0.000      96        0.00    0.000    0.000     242.1    242.1    1.23   117.9     517.5     142.9     142.9      92.6      92.6      30.0    0.000     0.000     0.000     0.000     0.000    1.23     0.00    0.00      0   -9.90   -9.00        9.6        9.6        9.6        9.6        9.6        9.6        9.6        9.8       11.7       11.7       11.7       11.7        0.0        0.0        0.0        0.0        0.0        0.0        0.0        0.0        0.0        0.0        0.0        0.0      1.5      15.6      19.6      27.3      35.1    391.85
     9     8  2011    40     2     240.3     5.1      8.2    0.0    5.1    0.0      0.0      0.0   -9.90      2.7      2.7    100     12.3     12.3   100     15.1    15.1     100     16.9    1.25      0      0      0      0      0    71.2    71.2      0     0.86     12.3     12.3     12.3   100    34.3     2.818    -9.9    0.000    0.000      97        0.00    0.000    0.000     240.3    240.3    1.25   118.3     526.7     145.4     145.4      90.9      90.9      30.6    0.000     0.000     0.000     0.000     0.000    1.25     0.00    0.00      0   -9.90   -9.00        9.5        9.5        9.5        9.5        9.5        9.5        9.5        9.6       11.7       11.7       11.7       11.7        0.0        0.0        0.0        0.0        0.0        0.0        0.0        0.0        0.0        0.0        0.0        0.0      5.1      14.3      19.8      26.6      33.4    391.85
    10     8  2011    41     2     239.8     4.1     10.1    0.0    4.1    0.0      0.0      0.0   -9.90      2.3      2.3    100     12.5     12.5   100     14.8    14.8     100     17.0    1.27      0      0      0      0      0    74.8    74.8      0     0.89     12.5     12.5     12.5   100    34.3     3.123    -9.9    0.000    0.000      97        0.00    0.000    0.000     239.8    239.8    1.27   119.9     535.8     147.9     147.9      91.8      91.8      31.1    0.000     0.000     0.000     0.000     0.000    1.27     0.00    0.00      0   -9.90   -9.00        9.4        9.4        9.5        9.5        9.5        9.5        9.5        9.5       11.7       11.7       11.7       11.7        0.0        0.0        0.0        0.0        0.0        0.0        0.0        0.0        0.0        0.0        0.0        0.0      4.1      14.0      20.0      26.6      33.1    391.85
    11     8  2011    42     2     239.7    11.2      3.4    0.0   11.2    0.0      0.0      0.0   -9.90      1.9      1.9    100     12.8     12.8   100     14.7    14.7     100     16.5    1.29      0      0      0      0      0    77.9    77.9      0     0.91     12.8     12.8     12.8   100    34.3     3.436    -9.9    0.000    0.000      97        0.00    0.000    0.000     239.7    239.7    1.29   121.8     544.9     150.4     150.4      93.2      93.2      31.6    0.000     0.000     0.000     0.000     0.000    1.29     0.00    0.00      0   -9.90   -9.00        9.4        9.4        9.5        9.5        9.5        9.5        9.5        9.5       11.7       11.7       11.7       11.7        0.0        0.0        0.0        0.0        0.0        0.0        0.0        0.0        0.0        0.0        0.0        0.0     11.2      14.0      18.9      25.7      32.5    391.85
    12     8  2011    43     2     242.0     3.9     14.9    0.0    3.9    0.0      0.0      0.0   -9.90      1.8      1.8    100     14.7     14.7   100     16.6    16.6     100     16.6    1.31      0      0      0      0      0    80.6    80.6      0     0.93     14.7     14.7     14.7   100    34.3     3.756    -9.9    0.000    0.000      97        0.00    0.000    0.000     242.0    242.0    1.31   126.5     553.9     152.9     152.9      99.7      99.7      32.2    0.000     0.000     0.000     0.000     0.000    1.31     0.00    0.00      0   -9.90   -9.00        9.6        9.6        9.7        9.7        9.7        9.7        9.7        9.7       11.6       11.7       11.7       11.7        0.0        0.0        0.0        0.0        0.0        0.0        0.0        0.0        0.0        0.0        0.0        0.0      3.9      15.8      19.1      27.2      35.2    391.85
    13     8  2011    44     2     239.9     1.3     12.1    0.0    1.3    0.0      0.0      0.0   -9.90      1.5      1.5     99     14.0     14.0   100     15.5    15.5     100     16.4    1.33      3      0      0      0      0    82.7    82.7      0     0.95     14.0     14.0     14.0   100    34.3     4.081    -9.9    0.000    0.000      97        0.00    0.000    0.000     239.9    239.9    1.33   127.5     562.8     155.4     155.4      98.5      98.5      32.7    0.000     0.000     0.000     0.000     0.000    1.33     0.00    0.00      0   -9.90   -9.00        9.5        9.5        9.6        9.6        9.6        9.6        9.6        9.6       11.3       11.7       11.7       11.7        0.0        0.0        0.0        0.0        0.0        0.0        0.0        0.0        0.0        0.0        0.0        0.0      1.3      14.8      18.9      26.2      33.6    391.85
    14     8  2011    45     2     237.8     6.2      6.3    0.0    6.2    0.0      0.0      0.0   -9.90      1.2      1.2    100     13.4     13.4   100     14.6    14.6     100     17.8    1.35      0      0      0      0      0    84.6    84.6      0     0.96     13.4     13.4     13.4   100    34.3     4.410    -9.9    0.000    0.000      97        0.00    0.000    0.000     237.8    237.8    1.35   128.5     571.7     157.8     157.8      97.6      97.6      33.2    0.000     0.000     0.000     0.000     0.000    1.35     0.00    0.00      0   -9.90   -9.00        9.4        9.4        9.5        9.5        9.5        9.5        9.5        9.5       10.9       11.7       11.7       11.7        0.0        0.0        0.0        0.0        0.0        0.0        0.0        0.0        0.0        0.0        0.0        0.0      6.2      13.9      21.6      27.7      33.9    391.85
    15     8  2011    46     2     237.6     2.1     13.0    0.0    2.1    0.0      0.0      0.0   -9.90      1.1      1.1    100     14.2     14.2   100     15.3    15.3     100     17.0    1.37      1      0      0      0      0    86.2    86.2      0     0.97     14.2     14.2     14.2   100    34.3     4.744    -9.9    0.000    0.000      98        0.00    0.000    0.000     237.6    237.6    1.37   131.4     580.6     160.3     160.3     101.0     101.0      33.8    0.000     0.000     0.000     0.000     0.000    1.37     0.00    0.00      0   -9.90   -9.00        9.5        9.5        9.5        9.5        9.5        9.5        9.5        9.5       10.5       11.7       11.7       11.7        0.0        0.0        0.0        0.0        0.0        0.0        0.0        0.0        0.0        0.0        0.0        0.0      2.1      14.6      20.1      27.0      34.0    391.85
    16     8  2011    47     2     236.1    12.7      0.6    0.0   12.6    0.1      0.0      0.0   -9.90      0.9      0.9    100     13.9     13.9   100     14.8    14.8     100     17.2    1.40      0      0      0      0      0    87.6    87.6      0     0.98     13.9     13.9     13.9   100    34.3     5.080    -9.9    0.000    0.000      98        0.00    0.000    0.000     236.1    236.1    1.40   132.6     589.4     162.7     162.7     101.3     101.3      34.3    0.000     0.000     0.000     0.000     0.000    1.40     0.00    0.00      0   -9.90   -9.00        9.5        9.5        9.5        9.5        9.5        9.5        9.5        9.5       10.1       11.7       11.7       11.7        0.0        0.0        0.0        0.0        0.0        0.0        0.0        0.0        0.0        0.0        0.0        0.0     12.7      14.2      20.5      27.1      33.6    391.85
    17     8  2011    48     2     234.8     3.6      9.5    0.0    3.6    0.0      0.0      0.0   -9.90      0.8      0.8    100     13.7     13.7   100     14.4    14.4     100     17.7    1.42      0      0      0      0      0    88.7    88.7      0     0.99     13.7     13.7     13.7   100    34.3     5.420    -9.9    0.000    0.000      98        0.00    0.000    0.000     234.8    234.8    1.42   133.9     598.2     165.1     165.1     101.7     101.7      34.8    0.000     0.000     0.000     0.000     0.000    1.42     0.00    0.00      0   -9.90   -9.00        9.4        9.4        9.5        9.5        9.5        9.5        9.5        9.5        9.8       11.7       11.7       11.7        0.0        0.0        0.0        0.0        0.0        0.0        0.0        0.0        0.0        0.0        0.0        0.0      3.6      13.8      21.4      27.5      33.6    391.85
    18     8  2011    49     2     233.8     1.9     11.3    0.0    1.9    0.0      0.0      0.0   -9.90      0.7      0.7    100     13.4     13.4   100     14.1    14.1     100     17.8    1.44      1      0      0      0      0    89.7    89.7      0     1.00     13.4     13.4     13.4   100    34.3     5.761    -9.9    0.000    0.000      98        0.00    0.000    0.000     233.8    233.8    1.44   135.1     606.9     167.5     167.5     102.3     102.3      35.3    0.000     0.000     0.000     0.000     0.000    1.44     0.00    0.00      0   -9.90   -9.00        9.4        9.4        9.4        9.4        9.4        9.4        9.4        9.4        9.6       11.7       11.7       11.7        0.0        0.0        0.0        0.0        0.0        0.0        0.0        0.0        0.0        0.0        0.0        0.0      1.9      13.5      21.6      27.5      33.3    391.85
    19     8  2011    50     2     234.8    10.5      5.4    0.0   10.4    0.0      0.0      0.0   -9.90      0.6      0.6    100     14.3     14.3   100     14.9    14.9     100     16.7    1.46      0      0      0      0      0    90.5    90.5      0     1.00     14.3     14.3     14.3   100    34.3     6.105    -9.9    0.000    0.000      98        0.00    0.000    0.000     234.8    234.8    1.46   138.1     615.5     169.9     169.9     106.2     106.2      35.8    0.000     0.000     0.000     0.000     0.000    1.46     0.00    0.00      0   -9.90   -9.00        9.5        9.5        9.5        9.5        9.5        9.5        9.5        9.5        9.5       11.7       11.7       11.7        0.0        0.0        0.0        0.0        0.0        0.0        0.0        0.0        0.0        0.0        0.0        0.0     10.5      14.3      19.4      26.3      33.2    391.85
    20     8  2011    51     2     235.1     1.6     14.0    0.0    1.6    0.0      0.0      0.0   -9.90      0.6      0.6    100     14.6     14.6   100     15.2    15.2     100     17.0    1.48      3      0      0      0      0    91.2    91.2      0     1.01     14.6     14.6     14.6   100    34.3     6.450    -9.9    0.000    0.000      98        0.00    0.000    0.000     235.1    235.1    1.48   140.4     624.2     172.3     172.3     108.5     108.5      36.3    0.000     0.000     0.000     0.000     0.000    1.48     0.00    0.00      0   -9.90   -9.00        9.5        9.5        9.5        9.5        9.5        9.5        9.5        9.5        9.5       11.7       11.7       11.7        0.0        0.0        0.0        0.0        0.0        0.0        0.0        0.0        0.0        0.0        0.0        0.0      1.6      14.5      20.1      27.0      34.0    391.85
    21     8  2011    52     2     234.5    12.3      1.9    0.0   12.3    0.1      0.0      0.0   -9.90      0.5      0.5    100     14.3     14.3   100     14.8    14.8     100     17.6    1.50      0      0      0      0      0    91.8    91.8      0     1.01     14.3     14.3     14.3   100    34.3     6.796    -9.9    0.000    0.000      98        0.00    0.000    0.000     234.5    234.5    1.50   141.7     632.8     174.7     174.7     108.7     108.7      36.8    0.000     0.000     0.000     0.000     0.000    1.50     0.00    0.00      0   -9.90   -9.00        9.5        9.5        9.5        9.5        9.5        9.5        9.5        9.5        9.5       11.7       11.7       11.7        0.0        0.0        0.0        0.0        0.0        0.0        0.0        0.0        0.0        0.0        0.0        0.0     12.3      14.1      21.2      27.6      34.0    391.85
    22     8  2011    53     2     236.4     2.5     15.6    0.0    2.5    0.0      0.0      0.0   -9.90      0.5      0.5    100     15.6     15.6   100     16.1    16.1     100     16.6    1.52      0      0      0      0      0    92.3    92.3      0     1.01     15.6     15.6     15.6   100    34.3     7.144    -9.9    0.000    0.000      98        0.00    0.000    0.000     236.4    236.4    1.52   145.6     641.3     177.0     177.0     114.2     114.2      37.3    0.000     0.000     0.000     0.000     0.000    1.52     0.00    0.00      0   -9.90   -9.00        9.6        9.6        9.6        9.6        9.6        9.6        9.6        9.6        9.6       11.7       11.7       11.7        0.0        0.0        0.0        0.0        0.0        0.0        0.0        0.0        0.0        0.0        0.0        0.0      2.5      15.4      19.3      27.1      34.9    391.85
    23     8  2011    54     2     235.4     9.6      4.7    0.0    9.6    0.0      0.0      0.0   -9.90      0.4      0.4    100     14.9     14.9   100     15.4    15.4     100     17.0    1.54      0      0      0      0      0    92.7    92.7      0     1.02     14.9     14.9     14.9   100    34.3     7.493    -9.9    0.000    0.000      98        0.00    0.000    0.000     235.4    235.4    1.54   146.4     649.8     179.4     179.4     113.5     113.5      37.8    0.000     0.000     0.000     0.000     0.000    1.54     0.00    0.00      0   -9.90   -9.00        9.5        9.5        9.6        9.6        9.6        9.6        9.6        9.6        9.6       11.7       11.7       11.7        0.0        0.0        0.0        0.0        0.0        0.0        0.0        0.0        0.0        0.0        0.0        0.0      9.6      14.7      20.0      27.1      34.2    391.85
    24     8  2011    55     2     234.0     1.7     11.4    0.0    1.7    0.0      0.0      0.0   -9.90      0.4      0.4    100     14.2     14.2   100     14.6    14.6     100     17.3    1.56      2      0      0      0      0    93.0    93.0      0     1.02     14.2     14.2     14.2   100    34.3     7.842    -9.9    0.000    0.000      98        0.00    0.000    0.000     234.0    234.0    1.56   147.3     658.3     181.7     181.7     112.5     112.5      38.3    0.000     0.000     0.000     0.000     0.000    1.56     0.00    0.00      0   -9.90   -9.00        9.4        9.4        9.5        9.5        9.5        9.5        9.5        9.5        9.5       11.6       11.7       11.7        0.0        0.0        0.0        0.0        0.0        0.0        0.0        0.0        0.0        0.0        0.0        0.0      1.7      14.0      20.7      27.1      33.5    391.85
    25     8  2011    56     3     232.8     2.9     10.1    0.0    2.9    0.0      0.0      0.0   -9.90      0.3      0.3    100     13.9     13.9   100     14.2    14.2     100     18.0    1.58      0      0      0      0      0    93.3    93.3      0     1.02     13.9     13.9     13.9   100    34.3     8.192    -9.9    0.000    0.000      98        0.00    0.000    0.000     232.8    232.8    1.58   149.0     666.7     184.0     184.0     112.8     112.8      38.8    0.000     0.000     0.000     0.000     0.000    1.58     0.00    0.00      0   -9.90   -9.00        9.4        9.4        9.4        9.4        9.4        9.4        9.4        9.4        9.4       11.4       11.7       11.7        0.0        0.0        0.0        0.0        0.0        0.0        0.0        0.0        0.0        0.0        0.0        0.0      2.9      13.6      21.9      27.8      33.8    391.85
    26     8  2011    57     3     234.3     4.5     12.8    0.0    4.5    0.0      0.0      0.0   -9.90      0.3      0.3    100     15.4     15.4   100     15.7    15.7     100     17.3    1.60      0      0      0      0      0    93.5    93.5      0     1.02     15.4     15.4     15.4   100    34.3     8.542    -9.9    0.000    0.000      98        0.00    0.000    0.000     234.3    234.3    1.60   153.4     675.1     186.4     186.4     119.1     119.1      39.3    0.000     0.000     0.000     0.000     0.000    1.60     0.00    0.00      0   -9.90   -9.00        9.5        9.5        9.6        9.6        9.6        9.6        9.6        9.6        9.6       11.1       11.7       11.7        0.0        0.0        0.0        0.0        0.0        0.0        0.0        0.0        0.0        0.0        0.0        0.0      4.5      15.0      20.6      27.9      35.1    391.85
    27     8  2011    58     3     234.3     3.5     12.8    0.0    3.5    0.0      0.0      0.0   -9.90      0.3      0.3    100     16.0     16.0   100     16.3    16.3     100     17.2    1.62      0      0      0      0      0    93.7    93.7      0     1.02     16.0     16.0     16.0   100    34.3     8.893     1.5    0.134    0.149      98        0.02    0.000    0.000     234.3    234.3    1.62   156.3     683.5     188.7     188.7     122.5     122.5      39.8    0.000     0.000     0.000     0.000     0.000    1.62     0.00    0.00      0   -9.90   -9.00        9.6        9.6        9.7        9.7        9.7        9.7        9.7        9.7        9.7       10.7       11.7       11.7        0.0        0.0        0.0        0.0        0.0        0.0        0.0        0.0        0.0        0.0        0.0        0.0      3.5      15.6      20.4      28.2      35.9    391.85
    28     8  2011    59     3     233.0    13.9      0.0    0.0   13.7    0.2      0.0      0.0   -9.90      0.3      0.3    100     14.7     14.7   100     15.0    15.0     100     16.8    1.64      0      0      0      0      0    93.9    93.9      0     1.02     14.7     14.7     14.7   100    34.3     9.244     1.8    0.171    0.190      98        0.02    0.000    0.000     233.0    233.0    1.64   157.1     691.8     191.0     191.0     119.7     119.7      40.3    0.000     0.000     0.000     0.000     0.000    1.64     0.00    0.00      0   -9.90   -9.00       20.4        6.8        6.9        7.3        9.7        9.7        9.7        9.7        9.7       10.7       11.7       11.7        0.0        0.0        0.0        0.0        0.0        0.0        0.0        0.0        0.0        0.0        0.0        0.0     13.9      14.4      19.7      26.7      33.7    391.85
    29     8  2011    60     3     229.9     3.9      7.3    0.0    3.9    0.0      0.0      0.0   -9.90      0.3      0.3    100     14.0     14.0   100     14.3    14.3     100     17.6    1.66      0      0      0      0      0    93.9    93.9      0     1.02     14.0     14.0     14.0   100    34.3     9.596     2.3    0.217    0.241      98        0.03    0.000    0.000     229.9    229.9    1.66   156.7     700.1     193.3     193.3     118.7     118.7      40.8    0.000     0.000     0.000     0.000     0.000    1.66     0.00    0.00      0   -9.90   -9.00        9.4        9.4        9.5        9.5        9.5        9.5        9.5        9.5        9.5       10.2       11.7       11.7        0.0        0.0        0.0        0.0        0.0        0.0        0.0        0.0        0.0        0.0        0.0        0.0      3.9      13.7      21.3      27.4      33.6    391.85
    30     8  2011    61     3     231.3     0.1     17.0    0.0    0.1    0.0      0.0      0.0   -9.90      0.3      0.3    100     15.4     15.4   100     15.7    15.7     100     15.7    1.68     16      0      0      0      0    94.0    94.0      0     1.02     15.4     15.4     15.4   100    34.3     9.947     2.8    0.274    0.305      98        0.04    0.000    0.000     231.3    231.3    1.68   160.5     708.4     195.5     195.5     124.8     124.8      41.3    0.000     0.000     0.000     0.000     0.000    1.68     0.00    0.00      0   -9.90   -9.00        9.5        9.5        9.6        9.6        9.6        9.6        9.6        9.6        9.6        9.9       11.7       11.7        0.0        0.0        0.0        0.0        0.0        0.0        0.0        0.0        0.0        0.0        0.0        0.0      0.1      15.0      17.4      25.5      33.6    391.85
    31     8  2011    62     3     230.4     4.2     10.1    0.0    4.2    0.0      0.0      0.0   -9.90      0.3      0.3    100     14.9     14.9   100     15.2    15.2     100     17.5    1.70     -9      0      0      0      0    93.4    93.4      0     1.01     14.9     14.9     14.9   100    34.3    10.294     3.4    0.346    0.384      98        0.05    0.000    0.000     230.4    230.4    1.70   161.7     716.6     197.8     197.8     125.2     125.2      41.8    0.000     0.000     0.000     0.000     0.000    1.70     0.00    0.00      0   -9.90   -9.00        9.5        9.5        9.6        9.6        9.6        9.6        9.6        9.6        9.6        9.7       11.7       11.7        0.0        0.0        0.0        0.0        0.0        0.0        0.0        0.0        0.0        0.0        0.0        0.0      4.2      14.7      21.0      28.0      35.0    391.85
     1     9  2011    63     3     229.4     4.8      9.0    0.0    4.8    0.0      0.0      0.0   -9.90      0.3      0.3    100     14.5     14.5   100     14.8    14.8     100     16.9    1.71     -9      0      0      0      0    93.5    93.5      0     1.01     14.5     14.5     14.5   100    34.3    10.641     4.1    0.434    0.482      98        0.06    0.000    0.000     229.4    229.4    1.71   162.7     724.8     200.1     200.1     125.2     125.2      42.3    0.000     0.000     0.000     0.000     0.000    1.71     0.00    0.00      0   -9.90   -9.00        9.5        9.5        9.5        9.5        9.5        9.5        9.5        9.5        9.5        9.6       11.7       11.7        0.0        0.0        0.0        0.0        0.0        0.0        0.0        0.0        0.0        0.0        0.0        0.0      4.8      14.3      19.9      26.8      33.8    391.85
     2     9  2011    64     3     225.5     8.4      0.2    0.0    8.4    0.0      0.0      0.0   -9.90      0.3      0.3    100     12.3     12.3   100     12.6    12.6     100     17.9    1.73     -9      0      0      0      0    93.6    93.6      0     1.01     12.3     12.3     12.3   100    34.3    10.987     4.9    0.542    0.602      98        0.07    0.000    0.000     225.5    225.5    1.73   160.7     732.9     202.3     202.3     118.9     118.9      42.7    0.000     0.000     0.000     0.000     0.000    1.73     0.00    0.00      0   -9.90   -9.00        9.2        9.2        9.3        9.3        9.3        9.3        9.3        9.3        9.3        9.4       11.7       11.7        0.0        0.0        0.0        0.0        0.0        0.0        0.0        0.0        0.0        0.0        0.0        0.0      8.4      12.2      21.8      26.9      31.9    391.85
     3     9  2011    65     3     229.1    12.0      6.3    0.0   12.0    0.0      0.0      0.0   -9.90      0.3      0.3    100     14.3     14.3   100     14.7    14.7     100     16.8    1.75     -9      0      0      0      0    93.6    93.6      0     1.01     14.3     14.3     14.3   100    34.3    11.333     5.9    0.674    0.748      98        0.09    0.000    0.000     229.1    229.1    1.75   166.1     741.1     204.6     204.6     127.7     127.7      43.2    0.000     0.000     0.000     0.000     0.000    1.75     0.00    0.00      0   -9.90   -9.00        9.5        9.5        9.5        9.5        9.5        9.5        9.5        9.5        9.5        9.5       11.7       11.7        0.0        0.0        0.0        0.0        0.0        0.0        0.0        0.0        0.0        0.0        0.0        0.0     12.0      14.2      19.6      26.6      33.6    391.85
     4     9  2011    66     3     231.4    16.8      0.0    0.0   16.4    0.3      0.0      0.0   -9.90      0.3      0.3    100     13.7     13.7   100     14.0    14.0     100     17.9    1.77     -9      0      0      0      0    93.7    93.7      0     1.01     13.7     13.7     13.7   100    34.3    11.678     7.1    0.832    0.925      98        0.10    0.000    0.000     231.4    231.4    1.77   170.3     749.2     206.8     206.8     126.9     126.9      43.7    0.000     0.000     0.000     0.000     0.000    1.77     0.00    0.00      0   -9.90   -9.00       23.0        6.6        6.7        7.8        9.5        9.5        9.5        9.5        9.5        9.5       11.7       11.7        0.0        0.0        0.0        0.0        0.0        0.0        0.0        0.0        0.0        0.0        0.0        0.0     16.8      13.7      21.9      28.0      34.0    391.85
     5     9  2011    67     3     231.3    14.6      1.7    0.0   13.8    0.7      0.0      0.0   -9.90      0.3      0.3    100     15.4     15.4   100     15.7    15.7     100     15.9    1.79     -9      0      0      0      0    93.7    93.7      0     1.00     15.4     15.4     15.4   100    34.3    12.022     8.5    1.022    1.135      98        0.13    0.000    0.000     231.3    231.3    1.79   171.9     757.2     209.0     209.0     134.8     134.8      44.2    0.000     0.000     0.000     0.000     0.000    1.79     0.00    0.00      0   -9.90   -9.00        9.6        9.6        9.6        9.6        9.6        9.6        9.6        9.6        9.6        9.6       11.7       11.7        0.0        0.0        0.0        0.0        0.0        0.0        0.0        0.0        0.0        0.0        0.0        0.0     14.6      15.3      17.9      26.2      34.5    391.85
     6     9  2011    68     3     231.2     1.8     14.0    0.0    1.8    0.0      0.0      0.0   -9.90      0.3      0.3    100     15.5     15.5   100     15.8    15.8     100     16.5    1.81     -9      0      0      0      0    93.8    93.8      0     1.00     15.5     15.5     15.5   100    34.3    12.366    10.0    1.239    1.377      98        0.15    0.000    0.000     231.2    231.2    1.81   174.1     765.3     211.2     211.2     136.5     136.5      44.6    0.000     0.000     0.000     0.000     0.000    1.81     0.00    0.00      0   -9.90   -9.00        9.6        9.6        9.6        9.6        9.6        9.6        9.6        9.6        9.6        9.6       11.6       11.7        0.0        0.0        0.0        0.0        0.0        0.0        0.0        0.0        0.0        0.0        0.0        0.0      1.8      15.4      19.0      27.1      35.2    391.85
     7     9  2011    69     4     229.2     8.1      4.9    0.0    8.1    0.0      0.0      0.0   -9.90      0.3      0.3    100     14.7     14.7   100     15.0    15.0     100     16.5    1.83     -9      0      0      0      0    93.8    93.8      0     1.00     14.7     14.7     14.7   100    34.3    12.709    11.5    1.468    1.631      98        0.17    0.000    0.000     229.2    229.2    1.83   174.8     773.3     213.5     213.5     135.1     135.1      45.1    0.000     0.000     0.000     0.000     0.000    1.83     0.00    0.00      0   -9.90   -9.00        9.5        9.5        9.6        9.6        9.6        9.6        9.6        9.6        9.6        9.6       11.4       11.7        0.0        0.0        0.0        0.0        0.0        0.0        0.0        0.0        0.0        0.0        0.0        0.0      8.1      14.7      19.0      26.6      34.1    391.85
     8     9  2011    70     4     229.0     3.4     11.7    0.0    3.4    0.0      0.0      0.0   -9.90      0.3      0.3    100     15.0     15.0   100     15.3    15.3     100     17.2    1.85     -9      0      0      0      0    93.8    93.8      0     1.00     15.0     15.0     15.0   100    34.3    13.051    13.1    1.706    1.896      98        0.20    0.000    0.000     229.0    229.0    1.85   177.5     781.3     215.7     215.7     137.9     137.9      45.6    0.000     0.000     0.000     0.000     0.000    1.85     0.00    0.00      0   -9.90   -9.00        9.6        9.6        9.6        9.6        9.6        9.6        9.6        9.6        9.6        9.6       11.0       11.7        0.0        0.0        0.0        0.0        0.0        0.0        0.0        0.0        0.0        0.0        0.0        0.0      3.4      15.1      20.4      27.9      35.4    391.85
     9     9  2011    71     4     227.0     2.1     10.5    0.0    2.1    0.0      0.0      0.0   -9.90      0.3      0.3    100     14.4     14.4   100     14.7    14.7     100     17.2    1.87     -9      0      0      0      0    93.9    93.9      0     1.00     14.4     14.4     14.4   100    34.3    13.392    14.6    1.955    2.172      98        0.22    0.000    0.000     227.0    227.0    1.87   178.2     789.2     217.9     217.9     137.1     137.1      46.1    0.000     0.000     0.000     0.000     0.000    1.87     0.00    0.00      0   -9.90   -9.00        9.5        9.5        9.5        9.5        9.5        9.5        9.5        9.5        9.5        9.5       10.6       11.7        0.0        0.0        0.0        0.0        0.0        0.0        0.0        0.0        0.0        0.0        0.0        0.0      2.1      14.5      20.5      27.6      34.6    391.85
    10     9  2011    72     4     225.2     0.9     11.5    0.0    0.9    0.0      0.0      0.0   -9.90      0.3      0.3    100     13.9     13.9   100     14.2    14.2     100     17.7    1.89     -9      0      0      0      0    93.9    93.9      0     0.99     13.9     13.9     13.9   100    34.3    13.733    16.1    2.214    2.460      98        0.25    0.000    0.000     225.2    225.2    1.89   179.0     797.2     220.0     220.0     136.7     136.7      46.5    0.000     0.000     0.000     0.000     0.000    1.89     0.00    0.00      0   -9.90   -9.00        9.4        9.4        9.5        9.5        9.5        9.5        9.5        9.5        9.5        9.5       10.2       11.7        0.0        0.0        0.0        0.0        0.0        0.0        0.0        0.0        0.0        0.0        0.0        0.0      0.9      14.1      21.5      28.0      34.6    391.85
    11     9  2011    73     4     224.7     4.7      9.3    0.0    4.7    0.0      0.0      0.0   -9.90      0.3      0.3    100     14.1     14.1   100     14.4    14.4     100     16.5    1.90     -9      0      0      0      0    93.9    93.9      0     0.99     14.1     14.1     14.1   100    34.3    14.072    17.6    2.483    2.759      98        0.27    0.000    0.000     224.7    224.7    1.90   180.9     805.1     222.2     222.2     138.8     138.8      47.0    0.000     0.000     0.000     0.000     0.000    1.90     0.00    0.00      0   -9.90   -9.00        9.5        9.5        9.5        9.5        9.5        9.5        9.5        9.5        9.5        9.5        9.9       11.7        0.0        0.0        0.0        0.0        0.0        0.0        0.0        0.0        0.0        0.0        0.0        0.0      4.7      14.2      19.1      26.4      33.6    391.85
    12     9  2011    74     4     226.8    16.1      0.0    0.0   15.8    0.3      0.0      0.0   -9.90      0.3      0.3    100     13.4     13.4   100     13.7    13.7     100     17.1    1.92     -9      0      0      0      0    93.9    93.9      0     0.99     13.4     13.4     13.4   100    34.3    14.411    19.2    2.763    3.070      98        0.30    0.000    0.000     226.8    226.8    1.92   184.9     813.0     224.4     224.4     137.3     137.3      47.5    0.000     0.000     0.000     0.000     0.000    1.92     0.00    0.00      0   -9.90   -9.00       22.4        6.6        6.7        8.1        9.5        9.5        9.5        9.5        9.5        9.5        9.9       11.7        0.0        0.0        0.0        0.0        0.0        0.0        0.0        0.0        0.0        0.0        0.0        0.0     16.1      13.6      20.3      26.8      33.2    391.85
    13     9  2011    75     4     231.5    19.1      0.0    0.0   17.6    1.5      0.0      0.0   -9.90      0.3      0.3    100     12.7     12.7   100     13.0    13.0     100     17.3    1.94     -9      0      0      0      0    93.9    93.9      0     0.99     12.7     12.7     12.7   100    34.3    14.749    20.7    3.053    3.392      98        0.33    0.000    0.000     231.5    231.5    1.94   191.4     820.8     226.6     226.6     136.0     136.0      47.9    0.000     0.000     0.000     0.000     0.000    1.94     0.00    0.00      0   -9.90   -9.00       27.6        9.0        5.0        7.0        9.5        9.5        9.5        9.5        9.5        9.5        9.9       11.7        0.0        0.0        0.0        0.0        0.0        0.0        0.0        0.0        0.0        0.0        0.0        0.0     19.1      12.9      20.7      26.6      32.6    391.85
    14     9  2011    76     4     224.3     4.6      2.5    0.0    4.6    0.0      0.0      0.0   -9.90      0.3      0.3    100     14.0     14.0   100     14.3    14.3     100     17.4    1.96     -9      0     -9      0      0    93.4    93.4      0     0.97     14.0     14.0     14.0   100    34.3    15.083    22.2    3.352    3.724      98        0.35    0.000    0.000     224.3    224.3    1.96   186.2     828.6     228.7     228.7     143.3     143.3      48.4    0.000     0.000     0.000     0.000     0.000    1.96     0.00    0.00      0   -9.90   -9.00        9.5        9.5        9.5        9.5        9.5        9.5        9.5        9.5        9.5        9.5        9.7       11.7        0.0        0.0        0.0        0.0        0.0        0.0        0.0        0.0        0.0        0.0        0.0        0.0      4.6      14.3      20.8      27.8      34.8    391.85
    15     9  2011    77     4     225.5     7.2      8.9    0.0    7.2    0.0      0.0      0.0   -9.90      0.4      0.4    100     14.5     14.5   100     14.9    14.9     100     16.7    1.98     -9      0     -9      0      0    92.7    92.7      0     0.96     14.5     14.5     14.5   100    34.3    15.412    23.7    3.660    4.067      98        0.38    0.000    0.000     225.5    225.5    1.98   189.3     836.4     230.9     230.9     147.7     147.7      48.8    0.000     0.000     0.000     0.000     0.000    1.98     0.00    0.00      0   -9.90   -9.00        9.6        9.6        9.6        9.6        9.6        9.6        9.6        9.6        9.6        9.6        9.6       11.7        0.0        0.0        0.0        0.0        0.0        0.0        0.0        0.0        0.0        0.0        0.0        0.0      7.2      15.1      19.3      27.3      35.2    391.85
    16     9  2011    78     4     222.3     7.9      2.2    0.0    7.9    0.0      0.0      0.0   -9.90      0.4      0.4    100     12.8     12.8   100     13.3    13.3     100     17.4    2.00     -9      0     -9      0      0    92.0    92.0      0     0.94     12.8     12.8     12.8   100    34.3    15.736    25.3    3.977    4.419      98        0.41    0.000    0.000     222.3    222.3    2.00   188.0     844.2     233.0     233.0     142.7     142.7      49.3    0.000     0.000     0.000     0.000     0.000    2.00     0.00    0.00      0   -9.90   -9.00        9.4        9.4        9.4        9.4        9.4        9.4        9.4        9.4        9.4        9.4        9.5       11.7        0.0        0.0        0.0        0.0        0.0        0.0        0.0        0.0        0.0        0.0        0.0        0.0      7.9      13.6      20.9      27.3      33.8    391.85
    17     9  2011    79     4     223.3     4.0     10.6    0.0    4.0    0.0      0.0      0.0   -9.90      0.5      0.5    100     13.0     13.0   100     13.6    13.6     100     17.2    2.01     -9      0     -9      0      0    91.1    91.1      0     0.93     13.0     13.0     13.0   100    34.3    16.054    26.8    4.302    4.780      98        0.44    0.000    0.000     223.3    223.3    2.01   190.6     852.0     235.2     235.2     146.1     146.1      49.8    0.000     0.000     0.000     0.000     0.000    2.01     0.00    0.00      0   -9.90   -9.00        9.4        9.4        9.5        9.5        9.5        9.5        9.5        9.5        9.5        9.5        9.5       11.7        0.0        0.0        0.0        0.0        0.0        0.0        0.0        0.0        0.0        0.0        0.0        0.0      4.0      14.1      20.3      27.3      34.2    391.85
    18     9  2011    80     4     225.0    12.2      3.8    0.0   12.1    0.1      0.0      0.0   -9.90      0.7      0.7    100     13.5     13.5   100     14.2    14.2     100     16.2    2.03     -9      0     -9      0      0    90.1    90.1      0     0.91     13.5     13.5     13.5   100    34.3    16.366    28.3    4.635    5.150      98        0.46    0.000    0.000     225.0    225.0    2.03   194.0     859.7     237.3     237.3     150.8     150.8      50.2    0.000     0.000     0.000     0.000     0.000    2.03     0.00    0.00      0   -9.90   -9.00        9.5        9.5        9.6        9.6        9.6        9.6        9.6        9.6        9.6        9.6        9.6       11.7        0.0        0.0        0.0        0.0        0.0        0.0        0.0        0.0        0.0        0.0        0.0        0.0     12.2      14.8      18.4      26.5      34.5    391.85
    19     9  2011    81     4     222.6     8.5      2.1    0.0    8.5    0.0      0.0      0.0   -9.90      0.7      0.7    100     12.2     12.2   100     12.9    12.9     100     16.6    2.05     -9      0     -9      0      0    89.0    89.0      0     0.89     12.2     12.2     12.2   100    34.3    16.671    29.8    4.976    5.529      98        0.49    0.000    0.000     222.6    222.6    2.05   193.5     867.4     239.4     239.4     147.5     147.5      50.7    0.000     0.000     0.000     0.000     0.000    2.05     0.00    0.00      0   -9.90   -9.00        9.4        9.4        9.5        9.5        9.5        9.5        9.5        9.5        9.5        9.5        9.5       11.7        0.0        0.0        0.0        0.0        0.0        0.0        0.0        0.0        0.0        0.0        0.0        0.0      8.5      13.8      19.1      26.2      33.2    391.85
    20     9  2011    82     4     222.9     5.9      7.4    0.0    5.9    0.0      0.0      0.0   -9.90      0.8      0.8    100     12.2     12.2   100     13.0    13.0     100     17.4    2.07     -9      0     -9      0      0    87.8    87.8      0     0.87     12.2     12.2     12.2   100    34.3    16.968    31.4    5.323    5.915      99        0.52    0.000    0.000     222.9    222.9    2.07   196.2     875.1     241.5     241.5     150.2     150.2      51.1    0.000     0.000     0.000     0.000     0.000    2.07     0.00    0.00      0   -9.90   -9.00        9.4        9.4        9.5        9.5        9.5        9.5        9.5        9.5        9.5        9.5        9.5       11.5        0.0        0.0        0.0        0.0        0.0        0.0        0.0        0.0        0.0        0.0        0.0        0.0      5.9      14.1      20.9      27.8      34.7    391.85
    21     9  2011    83     4     221.0     5.9      4.6    0.0    5.9    0.0      0.0      0.0   -9.90      0.9      0.9    100     11.4     11.4   100     12.4    12.4     100     17.2    2.09     -9      0     -9      0      0    86.4    86.4      0     0.84     11.4     11.4     11.4   100    34.3    17.257    32.9    5.677    6.308      99        0.55    0.000    0.000     221.0    221.0    2.09   197.1     882.8     243.7     243.7     149.3     149.3      51.6    0.000     0.000     0.000     0.000     0.000    2.09     0.00    0.00      0   -9.90   -9.00        9.4        9.4        9.4        9.4        9.4        9.4        9.4        9.4        9.4        9.4        9.4       11.2        0.0        0.0        0.0        0.0        0.0        0.0        0.0        0.0        0.0        0.0        0.0        0.0      5.9      13.6      20.4      27.1      33.8    391.85
    22     9  2011    84     4     229.3    22.4      0.0    0.0   21.4    1.0      0.0      0.0   -9.90      1.1      1.1    100     12.0     12.0   100     13.2    13.2     100     16.9    2.10     -9      0     -9      0      0    84.9    84.9      0     0.82     12.0     12.0     12.0   100    34.3    17.537    34.4    6.036    6.707      99        0.57    0.000    0.000     229.3    229.3    2.10   207.4     890.4     245.8     245.8     155.9     155.9      52.0    0.000     0.000     0.000     0.000     0.000    2.10     0.00    0.00      0   -9.90   -9.00       27.2        6.5        6.6        8.9        9.4        9.4        9.4        9.4        9.4        9.4        9.4       11.2        0.0        0.0        0.0        0.0        0.0        0.0        0.0        0.0        0.0        0.0        0.0        0.0     22.4      14.8      19.9      27.6      35.3    391.85
    23     9  2011    85     4     221.3     2.7      1.8    0.0    2.7    0.0      0.0      0.0   -9.90      1.2      1.2    100     11.2     11.2   100     12.5    12.5     100     16.8    2.12     -9      0     -9      0      0    83.1    83.1      0     0.79     11.2     11.2     11.2   100    34.3    17.807    35.9    6.401    7.112      99        0.60    0.000    0.000     221.3    221.3    2.12   202.3     898.0     247.9     247.9     155.0     155.0      52.5    0.000     0.000     0.000     0.000     0.000    2.12     0.00    0.00      0   -9.90   -9.00        9.5        9.5        9.5        9.5        9.5        9.5        9.5        9.5        9.5        9.5        9.5       10.7        0.0        0.0        0.0        0.0        0.0        0.0        0.0        0.0        0.0        0.0        0.0        0.0      2.7      14.3      19.7      27.1      34.5    391.85
    24     9  2011    86     4     221.0    10.8      0.0    0.0   10.8    0.0      0.0      0.0   -9.90      1.3      1.3    100      9.8      9.8   100     11.0    11.0     100     17.1    2.14     -9      0     -9      0      0    81.1    81.1      0     0.75      9.8      9.8      9.8   100    34.3    18.065    37.5    6.769    7.521      99        0.63    0.000    0.000     221.0    221.0    2.14   204.0     905.6     250.0     250.0     150.3     150.3      52.9    0.000     0.000     0.000     0.000     0.000    2.14     0.00    0.00      0   -9.90   -9.00       16.3        6.6        7.7        9.5        9.5        9.5        9.5        9.5        9.5        9.5        9.5       10.7        0.0        0.0        0.0        0.0        0.0        0.0        0.0        0.0        0.0        0.0        0.0        0.0     10.8      13.0      20.1      26.5      32.8    391.85
    25     9  2011    87     4     219.0     5.0      4.5    0.0    5.0    0.0      0.0      0.0   -9.90      1.5      1.5    100     10.0     10.0   100     11.5    11.5     100     16.9    2.16     -9      0     -9      0      0    78.9    78.9      0     0.72     10.0     10.0     10.0   100    34.3    18.312    39.0    7.141    7.934      99        0.66    0.000    0.000     219.0    219.0    2.16   204.7     913.2     252.1     252.1     155.7     155.7      53.4    0.000     0.000     0.000     0.000     0.000    2.16     0.00    0.00      0   -9.90   -9.00        9.4        9.4        9.5        9.5        9.5        9.5        9.5        9.5        9.5        9.5        9.5       10.2        0.0        0.0        0.0        0.0        0.0        0.0        0.0        0.0        0.0        0.0        0.0        0.0      5.0      13.9      19.8      26.9      34.1    391.85
[...]
    10    12  2015    -9     0     212.3     3.7      0.0    0.0    3.7    0.0      0.0      0.0   -9.90     12.6      6.3     50      0.0      0.0   100     12.6     6.3      50     16.3    2.28     -9     -9     -9      0     -9     0.0     0.0      0    -9.00      0.0      0.0      0.0   100    34.5    19.961    48.2    9.616   10.685     100        0.82    0.000    0.000     212.3    212.3    2.28   210.7     965.7     266.5     266.5     153.0     163.6      56.5    0.000     0.000     0.000     0.000     0.000    2.28     0.00    0.00      0   -9.90   -9.00        4.5        8.3        9.5        9.5        9.5        9.5        9.5        9.5        9.5        9.5        9.5        9.5        0.0        0.0        0.0        0.0        0.0        0.0        0.0        0.0        0.0        0.0        0.0        0.0      3.7      11.5      18.6      26.3      33.9    401.01
    11    12  2015    -9     0     212.7     6.8      0.0    0.0    6.8    0.0      0.0      0.0   -9.90     11.4      6.4     56      0.0      0.0   100     11.4     6.4      56     17.1    2.28     -9     -9     -9      0     -9     0.0     0.0      0    -9.00      0.0      0.0      0.0   100    34.5    19.961    48.2    9.616   10.685     100        0.82    0.000    0.000     212.7    212.7    2.28   211.0     965.7     266.5     266.5     147.7     163.6      56.5    0.000     0.000     0.000     0.000     0.000    2.28     0.00    0.00      0   -9.90   -9.00        4.9        8.3        9.5        9.5        9.5        9.5        9.5        9.5        9.5        9.5        9.5        9.5        0.0        0.0        0.0        0.0        0.0        0.0        0.0        0.0        0.0        0.0        0.0        0.0      6.8      10.4      20.2      26.4      32.6    401.01
    12    12  2015    -9     0     211.7     4.3      0.0    0.0    4.3    0.0      0.0      0.0   -9.90     11.5      5.4     47      0.0      0.0   100     11.5     5.4      47     17.6    2.28     -9     -9     -9      0     -9     0.0     0.0      0    -9.00      0.0      0.0      0.0   100    34.5    19.961    48.2    9.616   10.685     100        0.82    0.000    0.000     211.7    211.7    2.28   210.0     965.7     266.5     266.5     148.3     163.6      56.5    0.000     0.000     0.000     0.000     0.000    2.28     0.00    0.00      0   -9.90   -9.00        3.8        8.3        9.5        9.5        9.5        9.5        9.5        9.5        9.5        9.5        9.5        9.5        0.0        0.0        0.0        0.0        0.0        0.0        0.0        0.0        0.0        0.0        0.0        0.0      4.3      10.5      21.2      27.3      33.4    401.01
    13    12  2015    -9     0     211.6     5.2      0.0    0.0    5.2    0.0      0.0      0.0   -9.90     11.1      5.2     47      0.0      0.0   100     11.1     5.2      47     17.4    2.28     -9     -9     -9      0     -9     0.0     0.0      0    -9.00      0.0      0.0      0.0   100    34.5    19.961    48.2    9.616   10.685     100        0.82    0.000    0.000     211.6    211.6    2.28   209.9     965.7     266.5     266.5     146.4     163.6      56.5    0.000     0.000     0.000     0.000     0.000    2.28     0.00    0.00      0   -9.90   -9.00        3.8        8.3        9.5        9.5        9.5        9.5        9.5        9.5        9.5        9.5        9.5        9.5        0.0        0.0        0.0        0.0        0.0        0.0        0.0        0.0        0.0        0.0        0.0        0.0      5.2      10.1      20.7      26.6      32.5    401.01
    14    12  2015    -9     0     212.3     6.5      0.0    0.0    6.5    0.0      0.0      0.0   -9.90     11.0      5.8     52      0.0      0.0   100     11.0     5.8      52     18.2    2.28     -9     -9     -9      0     -9     0.0     0.0      0    -9.00      0.0      0.0      0.0   100    34.5    19.961    48.2    9.616   10.685     100        0.82    0.000    0.000     212.3    212.3    2.28   210.7     965.7     266.5     266.5     146.0     163.6      56.5    0.000     0.000     0.000     0.000     0.000    2.28     0.00    0.00      0   -9.90   -9.00        4.5        8.3        9.5        9.5        9.5        9.5        9.5        9.5        9.5        9.5        9.5        9.5        0.0        0.0        0.0        0.0        0.0        0.0        0.0        0.0        0.0        0.0        0.0        0.0      6.5      10.0      22.4      27.9      33.3    401.01
    15    12  2015    -9     0     211.2     4.1      0.0    0.0    4.1    0.0      0.0      0.0   -9.90     12.1      5.2     43      0.0      0.0   100     12.1     5.2      43     17.1    2.28     -9     -9     -9      0     -9     0.0     0.0      0    -9.00      0.0      0.0      0.0   100    34.5    19.961    48.2    9.616   10.685     100        0.82    0.000    0.000     211.2    211.2    2.28   209.5     965.7     266.5     266.5     150.7     163.6      56.5    0.000     0.000     0.000     0.000     0.000    2.28     0.00    0.00      0   -9.90   -9.00        3.4        8.3        9.5        9.5        9.5        9.5        9.5        9.5        9.5        9.5        9.5        9.5        0.0        0.0        0.0        0.0        0.0        0.0        0.0        0.0        0.0        0.0        0.0        0.0      4.1      11.0      20.2      27.0      33.8    401.01
    16    12  2015    -9     0     212.8     9.2      0.0    0.0    9.2    0.0      0.0      0.0   -9.90     13.0      7.6     59      0.0      0.0   100     13.0     7.6      59     16.4    2.28     -9     -9     -9      0     -9     0.0     0.0      0    -9.00      0.0      0.0      0.0   100    34.5    19.961    48.2    9.616   10.685     100        0.82    0.000    0.000     212.8    212.8    2.28   211.1     965.7     266.5     266.5     154.6     163.6      56.5    0.000     0.000     0.000     0.000     0.000    2.28     0.00    0.00      0   -9.90   -9.00        5.0        8.3        9.5        9.5        9.5        9.5        9.5        9.5        9.5        9.5        9.5        9.5        0.0        0.0        0.0        0.0        0.0        0.0        0.0        0.0        0.0        0.0        0.0        0.0      9.2      11.8      18.9      26.8      34.7    401.01
    17    12  2015    -9     0     211.2     0.7      0.0    0.0    0.7    0.0      0.0      0.0   -9.90     10.9      2.3     21      0.0      0.0   100     10.9     2.3      21     17.4    2.28     -9     -9     -9      0     -9     0.0     0.0      0    -9.00      0.0      0.0      0.0   100    34.5    19.961    48.2    9.616   10.685     100        0.82    0.000    0.000     211.2    211.2    2.28   209.5     965.7     266.5     266.5     145.3     163.6      56.5    0.000     0.000     0.000     0.000     0.000    2.28     0.00    0.00      0   -9.90   -9.00        3.4        8.3        9.5        9.5        9.5        9.5        9.5        9.5        9.5        9.5        9.5        9.5        0.0        0.0        0.0        0.0        0.0        0.0        0.0        0.0        0.0        0.0        0.0        0.0      0.7       9.9      20.8      26.5      32.1    401.01
    18    12  2015    -9     0     210.2     1.9      0.0    0.0    1.9    0.0      0.0      0.0   -9.90     12.7      2.9     23      0.0      0.0   100     12.7     2.9      23     17.0    2.28     -9     -9     -9      0     -9     0.0     0.0      0    -9.00      0.0      0.0      0.0   100    34.5    19.961    48.2    9.616   10.685     100        0.82    0.000    0.000     210.2    210.2    2.28   208.5     965.7     266.5     266.5     153.5     163.6      56.5    0.000     0.000     0.000     0.000     0.000    2.28     0.00    0.00      0   -9.90   -9.00        2.3        8.3        9.5        9.5        9.5        9.5        9.5        9.5        9.5        9.5        9.5        9.5        0.0        0.0        0.0        0.0        0.0        0.0        0.0        0.0        0.0        0.0        0.0        0.0      1.9      11.6      20.0      27.4      34.8    401.01
    19    12  2015    -9     0     213.0    10.3      0.0    0.0   10.3    0.0      0.0      0.0   -9.90     12.1      7.4     61      0.0      0.0   100     12.1     7.4      61     16.5    2.28     -9     -9     -9      0     -9     0.0     0.0      0    -9.00      0.0      0.0      0.0   100    34.5    19.961    48.2    9.616   10.685     100        0.82    0.000    0.000     213.0    213.0    2.28   211.3     965.7     266.5     266.5     150.7     163.6      56.5    0.000     0.000     0.000     0.000     0.000    2.28     0.00    0.00      0   -9.90   -9.00        5.2        8.3        9.5        9.5        9.5        9.5        9.5        9.5        9.5        9.5        9.5        9.5        0.0        0.0        0.0        0.0        0.0        0.0        0.0        0.0        0.0        0.0        0.0        0.0     10.3      11.0      19.1      26.2      33.3    401.01
    20    12  2015    -9     0     211.4     3.7      0.0    0.0    3.7    0.0      0.0      0.0   -9.90     12.9      5.3     41      0.0      0.0   100     12.9     5.3      41     16.7    2.28     -9     -9     -9      0     -9     0.0     0.0      0    -9.00      0.0      0.0      0.0   100    34.5    19.961    48.2    9.616   10.685     100        0.82    0.000    0.000     211.4    211.4    2.28   209.8     965.7     266.5     266.5     154.4     163.6      56.5    0.000     0.000     0.000     0.000     0.000    2.28     0.00    0.00      0   -9.90   -9.00        3.6        8.3        9.5        9.5        9.5        9.5        9.5        9.5        9.5        9.5        9.5        9.5        0.0        0.0        0.0        0.0        0.0        0.0        0.0        0.0        0.0        0.0        0.0        0.0      3.7      11.7      19.4      27.2      34.9    401.01
    21    12  2015    -9     0     212.7     8.2      0.0    0.0    8.2    0.0      0.0      0.0   -9.90     12.5      7.0     56      0.0      0.0   100     12.5     7.0      56     17.0    2.28     -9     -9     -9      0     -9     0.0     0.0      0    -9.00      0.0      0.0      0.0   100    34.5    19.961    48.2    9.616   10.685     100        0.82    0.000    0.000     212.7    212.7    2.28   211.0     965.7     266.5     266.5     152.3     163.6      56.5    0.000     0.000     0.000     0.000     0.000    2.28     0.00    0.00      0   -9.90   -9.00        4.9        8.3        9.5        9.5        9.5        9.5        9.5        9.5        9.5        9.5        9.5        9.5        0.0        0.0        0.0        0.0        0.0        0.0        0.0        0.0        0.0        0.0        0.0        0.0      8.2      11.3      20.1      27.2      34.4    401.01
    22    12  2015    -9     0     215.2    11.0      0.0    0.0   11.0    0.0      0.0      0.0   -9.90     12.4      8.4     68      0.0      0.0   100     12.4     8.4      68     16.7    2.28     -9     -9     -9      0     -9     0.0     0.0      0    -9.00      0.0      0.0      0.0   100    34.5    19.961    48.2    9.616   10.685     100        0.82    0.000    0.000     215.2    215.2    2.28   213.6     965.7     266.5     266.5     152.1     163.6      56.5    0.000     0.000     0.000     0.000     0.000    2.28     0.00    0.00      0   -9.90   -9.00        7.5        8.3        9.5        9.5        9.5        9.5        9.5        9.5        9.5        9.5        9.5        9.5        0.0        0.0        0.0        0.0        0.0        0.0        0.0        0.0        0.0        0.0        0.0        0.0     11.0      11.3      19.5      26.7      34.0    401.01
    23    12  2015    -9     0     212.1     1.4      0.0    0.0    1.4    0.0      0.0      0.0   -9.90     12.3      4.5     37      0.0      0.0   100     12.3     4.5      37     17.3    2.28     -9     -9     -9      0     -9     0.0     0.0      0    -9.00      0.0      0.0      0.0   100    34.5    19.961    48.2    9.616   10.685     100        0.82    0.000    0.000     212.1    212.1    2.28   210.4     965.7     266.5     266.5     151.8     163.6      56.5    0.000     0.000     0.000     0.000     0.000    2.28     0.00    0.00      0   -9.90   -9.00        4.3        8.3        9.5        9.5        9.5        9.5        9.5        9.5        9.5        9.5        9.5        9.5        0.0        0.0        0.0        0.0        0.0        0.0        0.0        0.0        0.0        0.0        0.0        0.0      1.4      11.2      20.6      27.5      34.5    401.01
    24    12  2015    -9     0     211.6     5.2      0.0    0.0    5.2    0.0      0.0      0.0   -9.90     13.4      5.8     43      0.0      0.0   100     13.4     5.8      43     17.0    2.28     -9     -9     -9      0     -9     0.0     0.0      0    -9.00      0.0      0.0      0.0   100    34.5    19.961    48.2    9.616   10.685     100        0.82    0.000    0.000     211.6    211.6    2.28   209.9     965.7     266.5     266.5     156.4     163.6      56.5    0.000     0.000     0.000     0.000     0.000    2.28     0.00    0.00      0   -9.90   -9.00        3.7        8.3        9.5        9.5        9.5        9.5        9.5        9.5        9.5        9.5        9.5        9.5        0.0        0.0        0.0        0.0        0.0        0.0        0.0        0.0        0.0        0.0        0.0        0.0      5.2      12.2      20.0      28.0      36.0    401.01
    25    12  2015    -9     0     212.8     8.0      0.0    0.0    8.0    0.0      0.0      0.0   -9.90     11.9      6.8     57      0.0      0.0   100     11.9     6.8      57     17.4    2.28     -9     -9     -9      0     -9     0.0     0.0      0    -9.00      0.0      0.0      0.0   100    34.5    19.961    48.2    9.616   10.685     100        0.82    0.000    0.000     212.8    212.8    2.28   211.1     965.7     266.5     266.5     149.9     163.6      56.5    0.000     0.000     0.000     0.000     0.000    2.28     0.00    0.00      0   -9.90   -9.00        5.0        8.3        9.5        9.5        9.5        9.5        9.5        9.5        9.5        9.5        9.5        9.5        0.0        0.0        0.0        0.0        0.0        0.0        0.0        0.0        0.0        0.0        0.0        0.0      8.0      10.8      20.9      27.4      33.9    401.01
    26    12  2015    -9     0     211.2     2.2      0.0    0.0    2.2    0.0      0.0      0.0   -9.90     12.1      3.8     31      0.0      0.0   100     12.1     3.8      31     17.2    2.28     -9     -9     -9      0     -9     0.0     0.0      0    -9.00      0.0      0.0      0.0   100    34.5    19.961    48.2    9.616   10.685     100        0.82    0.000    0.000     211.2    211.2    2.28   209.5     965.7     266.5     266.5     151.0     163.6      56.5    0.000     0.000     0.000     0.000     0.000    2.28     0.00    0.00      0   -9.90   -9.00        3.4        8.3        9.5        9.5        9.5        9.5        9.5        9.5        9.5        9.5        9.5        9.5        0.0        0.0        0.0        0.0        0.0        0.0        0.0        0.0        0.0        0.0        0.0        0.0      2.2      11.0      20.4      27.2      34.0    401.01
    27    12  2015    -9     0     212.1     6.7      0.0    0.0    6.7    0.0      0.0      0.0   -9.90     11.6      5.8     50      0.0      0.0   100     11.6     5.8      50     17.2    2.28     -9     -9     -9      0     -9     0.0     0.0      0    -9.00      0.0      0.0      0.0   100    34.5    19.961    48.2    9.616   10.685     100        0.82    0.000    0.000     212.1    212.1    2.28   210.5     965.7     266.5     266.5     148.5     163.6      56.5    0.000     0.000     0.000     0.000     0.000    2.28     0.00    0.00      0   -9.90   -9.00        4.3        8.3        9.5        9.5        9.5        9.5        9.5        9.5        9.5        9.5        9.5        9.5        0.0        0.0        0.0        0.0        0.0        0.0        0.0        0.0        0.0        0.0        0.0        0.0      6.7      10.5      20.5      26.8      33.1    401.01
    28    12  2015    -9     0     213.1     8.2      0.0    0.0    8.2    0.0      0.0      0.0   -9.90     11.5      7.2     63      0.0      0.0   100     11.5     7.2      63     17.8    2.28     -9     -9     -9      0     -9     0.0     0.0      0    -9.00      0.0      0.0      0.0   100    34.5    19.961    48.2    9.616   10.685     100        0.82    0.000    0.000     213.1    213.1    2.28   211.5     965.7     266.5     266.5     148.0     163.6      56.5    0.000     0.000     0.000     0.000     0.000    2.28     0.00    0.00      0   -9.90   -9.00        5.4        8.3        9.5        9.5        9.5        9.5        9.5        9.5        9.5        9.5        9.5        9.5        0.0        0.0        0.0        0.0        0.0        0.0        0.0        0.0        0.0        0.0        0.0        0.0      8.2      10.4      21.6      27.5      33.5    401.01
    29    12  2015    -9     0     214.5     9.2      0.0    0.0    9.2    0.0      0.0      0.0   -9.90     11.6      7.8     67      0.0      0.0   100     11.6     7.8      67     17.0    2.28     -9     -9     -9      0     -9     0.0     0.0      0    -9.00      0.0      0.0      0.0   100    34.5    19.961    48.2    9.616   10.685     100        0.82    0.000    0.000     214.5    214.5    2.28   212.8     965.7     266.5     266.5     148.7     163.6      56.5    0.000     0.000     0.000     0.000     0.000    2.28     0.00    0.00      0   -9.90   -9.00        6.8        8.3        9.5        9.5        9.5        9.5        9.5        9.5        9.5        9.5        9.5        9.5        0.0        0.0        0.0        0.0        0.0        0.0        0.0        0.0        0.0        0.0        0.0        0.0      9.2      10.6      20.0      26.4      32.8    401.01
    30    12  2015    -9     0     212.8     5.8      0.0    0.0    5.8    0.0      0.0      0.0   -9.90     12.8      7.5     58      0.0      0.0   100     12.8     7.5      58     17.1    2.28     -9     -9     -9      0     -9     0.0     0.0      0    -9.00      0.0      0.0      0.0   100    34.5    19.961    48.2    9.616   10.685     100        0.82    0.000    0.000     212.8    212.8    2.28   211.1     965.7     266.5     266.5     153.8     163.6      56.5    0.000     0.000     0.000     0.000     0.000    2.28     0.00    0.00      0   -9.90   -9.00        5.0        8.3        9.5        9.5        9.5        9.5        9.5        9.5        9.5        9.5        9.5        9.5        0.0        0.0        0.0        0.0        0.0        0.0        0.0        0.0        0.0        0.0        0.0        0.0      5.8      11.6      20.3      27.6      34.9    401.01
    31    12  2015    -9     0     213.1     8.7      0.0    0.0    8.7    0.0      0.0      0.0   -9.90     14.0      8.4     60      0.0      0.0   100     14.0     8.4      60     16.1    2.28     -9     -9     -9      0     -9     0.0     0.0      0    -9.00      0.0      0.0      0.0   100    34.5    19.961    48.2    9.616   10.685     100        0.82    0.000    0.000     213.1    213.1    2.28   211.4     965.7     266.5     266.5     159.0     163.6      56.5    0.000     0.000     0.000     0.000     0.000    2.28     0.00    0.00      0   -9.90   -9.00        5.3        8.3        9.5        9.5        9.5        9.5        9.5        9.5        9.5        9.5        9.5        9.5        0.0        0.0        0.0        0.0        0.0        0.0        0.0        0.0        0.0        0.0        0.0        0.0      8.7      12.7      18.3      27.1      36.0    401.01
