AquaCrop 7.1 (August 2023) - Output created on (date) : 29-01-2026   at (time) : 01:20:28

   Run:   1
   Day Month  Year   DAP Stage   WC(2.30)   Rain     Irri   Surf   Infilt   RO    Drain       CR    Zgwt       Ex       E     E/Ex     Trx       Tr  Tr/Trx    ETx      ET  ET/ETx      GD       Z     StExp  StSto  StSen StSalt StWeed   CC      CCw     StTr  Kc(Tr)     Trx       Tr      TrW  Tr/Trx   WP    Biomass     HI    Y(dry)  Y(fresh)  Brelative    WPet      Bin     Bout  WC(2.30) Wr(2.30)     Z       Wr    Wr(SAT)    Wr(FC)   Wr(exp)   Wr(sto)   Wr(sen)   Wr(PWP)    SaltIn    SaltOut   SaltUp   Salt(2.30)  SaltZ     Z       ECe    ECsw   StSalt  Zgwt    ECgw       WC01       WC 2       WC 3       WC 4       WC 5       WC 6       WC 7       WC 8       WC 9       WC10       WC11       WC12      ECe01      ECe 2      ECe 3      ECe 4      ECe 5      ECe 6      ECe 7      ECe 8      ECe 9      ECe10      ECe11      ECe12     Rain       ETo      Tmin      Tavg      Tmax      CO2
                                      mm      mm       mm     mm     mm     mm       mm       mm      m        mm       mm     %        mm       mm    %        mm      mm       %  degC-day     m       %      %      %      %      %      %       %       %       -        mm       mm       mm    %     g/m2    ton/ha      %    ton/ha   ton/ha       %       kg/m3   ton/ha   ton/ha      mm       mm       m       mm        mm        mm        mm        mm        mm         mm    ton/ha    ton/ha    ton/ha    ton/ha    ton/ha     m      dS/m    dS/m      %     m      dS/m       0.05       0.18       0.33       0.48       0.63       0.80       1.00       1.20       1.43       1.68       1.93       2.18       0.05       0.18       0.33       0.48       0.63       0.80       1.00       1.20       1.43       1.68       1.93       2.18       mm        mm     degC      degC      degC       ppm
     1     7  2024     1     1     268.3     0.0      0.0    0.0    0.0    0.0      0.0      0.0   -9.90      0.3      0.3     98      0.0      0.0   100      0.3     0.3      98     20.2    0.30     -9     -9     -9      0     -9     0.0     0.0      0    -9.00      0.0      0.0      0.0   100     0.0     0.000    -9.9    0.000    0.000      -9        0.00    0.000    0.000     268.3    268.3    0.30    34.3     125.1      34.6      30.7      12.4      15.5       6.9    0.000     0.000     0.000     0.000     0.000    0.30     0.00    0.00      0   -9.90   -9.00       11.4       11.7       11.7       11.7       11.7       11.7       11.7       11.7       11.7       11.7       11.7       11.7        0.0        0.0        0.0        0.0        0.0        0.0        0.0        0.0        0.0        0.0        0.0        0.0      0.0       0.2      26.4      28.9      31.3    422.57
     2     7  2024     2     1     268.4     0.3      0.0    0.0    0.3    0.0      0.0      0.0   -9.90      0.3      0.3    100      0.0      0.0   100      0.3     0.3     100     20.0    0.30     -9     -9     -9      0     -9     0.0     0.0      0    -9.00      0.0      0.0      0.0   100     0.0     0.000    -9.9    0.000    0.000      -9        0.00    0.000    0.000     268.4    268.4    0.30    34.4     125.1      34.6      30.7      12.4      15.5       6.9    0.000     0.000     0.000     0.000     0.000    0.30     0.00    0.00      0   -9.90   -9.00       11.5       11.7       11.7       11.7       11.7       11.7       11.7       11.7       11.7       11.7       11.7       11.7        0.0        0.0        0.0        0.0        0.0        0.0        0.0        0.0        0.0        0.0        0.0        0.0      0.3       0.2      26.1      28.9      31.7    422.57
     3     7  2024     3     1     269.2     1.1      0.0    0.0    1.1    0.0      0.0      0.0   -9.90      0.3      0.3    100      0.0      0.0   100      0.3     0.3     100     20.2    0.30     -9     -9     -9      0     -9     0.0     0.0      0    -9.00      0.0      0.0      0.0   100     0.0     0.000    -9.9    0.000    0.000      -9        0.00    0.000    0.000     269.2    269.2    0.30    35.2     125.1      34.6      30.7      12.4      15.5       6.9    0.000     0.000     0.000     0.000     0.000    0.30     0.00    0.00      0   -9.90   -9.00       12.3       11.7       11.7       11.7       11.7       11.7       11.7       11.7       11.7       11.7       11.7       11.7        0.0        0.0        0.0        0.0        0.0        0.0        0.0        0.0        0.0        0.0        0.0        0.0      1.1       0.2      26.4      29.1      31.9    422.57
     4     7  2024     4     1     269.4     0.7      0.0    0.0    0.7    0.0      0.2      0.0   -9.90      0.3      0.3    100      0.0      0.0   100      0.3     0.3     100     20.2    0.30     -9     -9     -9      0     -9     0.0     0.0      0    -9.00      0.0      0.0      0.0   100     0.0     0.000    -9.9    0.000    0.000      -9        0.00    0.000    0.000     269.4    269.4    0.30    35.1     125.1      34.6      30.7      12.4      15.5       6.9    0.000     0.000     0.000     0.000     0.000    0.30     0.00    0.00      0   -9.90   -9.00       12.2       11.8       11.8       11.7       11.7       11.7       11.7       11.7       11.7       11.7       11.7       11.7        0.0        0.0        0.0        0.0        0.0        0.0        0.0        0.0        0.0        0.0        0.0        0.0      0.7       0.3      26.4      29.3      32.2    422.57
     5     7  2024     5     1     269.1     0.3      0.0    0.0    0.3    0.0      0.4      0.0   -9.90      0.3      0.3    100      0.0      0.0   100      0.3     0.3     100     19.7    0.32     -9     -9     -9      0     -9     0.0     0.0      0    -9.00      0.0      0.0      0.0   100     0.0     0.000    -9.9    0.000    0.000      -9        0.00    0.000    0.000     269.1    269.1    0.32    37.2     133.5      36.9      32.8      13.3      16.5       7.4    0.000     0.000     0.000     0.000     0.000    0.32     0.00    0.00      0   -9.90   -9.00       11.8       11.7       11.7       11.7       11.7       11.7       11.7       11.7       11.7       11.7       11.7       11.7        0.0        0.0        0.0        0.0        0.0        0.0        0.0        0.0        0.0        0.0        0.0        0.0      0.3       0.2      25.3      28.1      30.9    422.57
     6     7  2024     6     1     268.5     0.1      0.0    0.0    0.1    0.0      0.3      0.0   -9.90      0.3      0.3     99      0.0      0.0   100      0.3     0.3      99     19.8    0.36     -9     -9     -9      0     -9     0.0     0.0      0    -9.00      0.0      0.0      0.0   100     0.0     0.000    -9.9    0.000    0.000      -9        0.00    0.000    0.000     268.5    268.5    0.36    41.4     150.6      41.6      37.0      15.1      18.7       8.4    0.000     0.000     0.000     0.000     0.000    0.36     0.00    0.00      0   -9.90   -9.00       11.4       11.7       11.7       11.7       11.7       11.7       11.7       11.7       11.7       11.7       11.7       11.7        0.0        0.0        0.0        0.0        0.0        0.0        0.0        0.0        0.0        0.0        0.0        0.0      0.1       0.3      25.7      29.9      34.2    422.57
     7     7  2024     7     2     271.9     3.8      0.0    0.0    3.8    0.0      0.1      0.0   -9.90      0.2      0.2    100      0.0      0.0   100      0.2     0.2     100     19.1    0.40     -9      0      0      0      0     0.4     0.4      0     0.01      0.0      0.0      0.0   100    35.0     0.003    -9.9    0.000    0.000     100        0.00    0.000    0.000     271.9    271.9    0.40    49.2     166.4      46.0      34.2      16.6      16.6       9.3    0.000     0.000     0.000     0.000     0.000    0.40     0.00    0.00      0   -9.90   -9.00       15.0       11.7       11.7       11.7       11.7       11.7       11.7       11.7       11.7       11.7       11.7       11.7        0.0        0.0        0.0        0.0        0.0        0.0        0.0        0.0        0.0        0.0        0.0        0.0      3.8       0.2      25.1      27.1      29.1    422.57
     8     7  2024     8     2     277.9     7.4      0.0    0.0    7.4    0.0      1.1      0.0   -9.90      0.2      0.2    100      0.0      0.0   100      0.2     0.2     100     19.3    0.43     -9      0      0      0      0     0.5     0.5      0     0.01      0.0      0.0      0.0   100    35.0     0.006    -9.9    0.000    0.000     100        0.00    0.000    0.000     277.9    277.9    0.43    58.5     181.2      50.1      37.3      18.2      18.2      10.2    0.000     0.000     0.000     0.000     0.000    0.43     0.00    0.00      0   -9.90   -9.00       19.4       12.0       12.0       11.9       11.8       11.8       11.8       11.7       11.7       11.7       11.7       11.7        0.0        0.0        0.0        0.0        0.0        0.0        0.0        0.0        0.0        0.0        0.0        0.0      7.4       0.2      25.1      27.3      29.5    422.57
     9     7  2024     9     2     279.0     5.1      0.0    0.0    5.1    0.0      3.8      0.0   -9.90      0.3      0.3    100      0.0      0.0   100      0.3     0.3     100     19.7    0.47      0      0      0      0      0     0.6     0.6      0     0.01      0.0      0.0      0.0   100    35.0     0.010    -9.9    0.000    0.000     100        0.00    0.000    0.000     279.0    279.0    0.47    61.8     195.4      54.0      40.3      19.6      19.6      11.0    0.000     0.000     0.000     0.000     0.000    0.47     0.00    0.00      0   -9.90   -9.00       17.4       12.3       12.4       12.1       12.0       11.9       11.9       11.8       11.8       11.8       11.8       11.8        0.0        0.0        0.0        0.0        0.0        0.0        0.0        0.0        0.0        0.0        0.0        0.0      5.1       0.2      25.5      28.2      30.9    422.57
    10     7  2024    10     2     273.7     0.0      0.0    0.0    0.0    0.0      5.0      0.0   -9.90      0.3      0.3     97      0.0      0.0   100      0.3     0.3      97     19.3    0.50      0      0      0      0      0     0.7     0.7      0     0.01      0.0      0.0      0.0   100    35.0     0.014    -9.9    0.000    0.000     100        0.00    0.000    0.000     273.7    273.7    0.50    60.2     209.1      57.8      43.2      21.1      21.1      11.9    0.000     0.000     0.000     0.000     0.000    0.50     0.00    0.00      0   -9.90   -9.00       12.1       12.2       12.3       12.1       12.0       11.9       11.9       11.8       11.8       11.8       11.8       11.8        0.0        0.0        0.0        0.0        0.0        0.0        0.0        0.0        0.0        0.0        0.0        0.0      0.0       0.3      24.7      28.1      31.6    422.57
    11     7  2024    11     2     270.9     0.7      0.0    0.0    0.7    0.0      3.3      0.0   -9.90      0.3      0.3    100      0.0      0.0   100      0.3     0.3     100     20.1    0.53      0      0      0      0      0     0.8     0.8      0     0.01      0.0      0.0      0.0   100    35.0     0.019    -9.9    0.000    0.000     100        0.00    0.000    0.000     270.9    270.9    0.53    62.4     222.3      61.4      45.9      22.4      22.4      12.6    0.000     0.000     0.000     0.000     0.000    0.53     0.00    0.00      0   -9.90   -9.00       12.2       11.8       11.8       11.8       11.8       11.8       11.8       11.8       11.8       11.8       11.8       11.7        0.0        0.0        0.0        0.0        0.0        0.0        0.0        0.0        0.0        0.0        0.0        0.0      0.7       0.3      26.3      29.2      32.0    422.57
    12     7  2024    12     2     270.2     1.0      0.0    0.0    1.0    0.0      1.5      0.0   -9.90      0.2      0.2    100      0.0      0.0   100      0.2     0.2     100     20.2    0.56      0      0      0      0      0     1.0     1.0      0     0.02      0.0      0.0      0.0   100    35.0     0.026    -9.9    0.000    0.000     100        0.00    0.000    0.000     270.2    270.2    0.56    66.1     235.2      65.0      48.4      23.6      23.6      13.4    0.000     0.000     0.000     0.000     0.000    0.56     0.00    0.00      0   -9.90   -9.00       12.6       11.7       11.8       11.7       11.7       11.7       11.7       11.7       11.7       11.7       11.7       11.7        0.0        0.0        0.0        0.0        0.0        0.0        0.0        0.0        0.0        0.0        0.0        0.0      1.0       0.2      26.7      28.2      29.8    422.57
    13     7  2024    13     2     271.8     2.7      0.0    0.0    2.7    0.0      0.8      0.0   -9.90      0.2      0.2    100      0.0      0.0   100      0.3     0.3     100     20.0    0.59      0      0      0      0      0     1.2     1.2      0     0.02      0.0      0.0      0.0   100    35.0     0.033    -9.9    0.000    0.000     100        0.00    0.000    0.000     271.8    271.8    0.59    71.3     247.7      68.4      51.1      25.0      25.0      14.1    0.000     0.000     0.000     0.000     0.000    0.59     0.00    0.00      0   -9.90   -9.00       14.3       11.8       11.8       11.8       11.7       11.7       11.7       11.7       11.7       11.7       11.7       11.7        0.0        0.0        0.0        0.0        0.0        0.0        0.0        0.0        0.0        0.0        0.0        0.0      2.7       0.2      26.1      28.4      30.8    422.57
    14     7  2024    14     2     270.9     0.7      0.0    0.0    0.7    0.0      1.3      0.0   -9.90      0.3      0.3    100      0.0      0.0   100      0.3     0.3     100     19.8    0.62      0      0      0      0      0     1.4     1.4      0     0.02      0.0      0.0      0.0   100    35.0     0.041    -9.9    0.000    0.000     100        0.00    0.000    0.000     270.9    270.9    0.62    73.4     259.9      71.8      53.7      26.3      26.3      14.8    0.000     0.000     0.000     0.000     0.000    0.62     0.00    0.00      0   -9.90   -9.00       12.3       11.9       11.9       11.9       11.8       11.8       11.8       11.7       11.7       11.7       11.7       11.7        0.0        0.0        0.0        0.0        0.0        0.0        0.0        0.0        0.0        0.0        0.0        0.0      0.7       0.3      25.5      28.9      32.3    422.57
    15     7  2024    15     2     270.9     1.5      0.0    0.0    1.5    0.0      1.3      0.0   -9.90      0.2      0.2    100      0.0      0.0   100      0.2     0.2     100     20.4    0.65      0      0      0      0      0     1.6     1.6      0     0.03      0.0      0.0      0.0   100    35.0     0.051    -9.9    0.000    0.000     100        0.00    0.000    0.000     270.9    270.9    0.65    76.9     271.9      75.1      56.0      27.4      27.4      15.6    0.000     0.000     0.000     0.000     0.000    0.65     0.00    0.00      0   -9.90   -9.00       13.1       11.8       11.8       11.8       11.8       11.8       11.7       11.7       11.7       11.7       11.7       11.7        0.0        0.0        0.0        0.0        0.0        0.0        0.0        0.0        0.0        0.0        0.0        0.0      1.5       0.2      26.9      29.1      31.2    422.57
    16     7  2024    16     2     271.9     2.4      0.0    0.0    2.4    0.0      1.1      0.0   -9.90      0.3      0.3    100      0.0      0.0   100      0.3     0.3     100     20.3    0.67      0      0      0      0      0     1.9     1.9      0     0.03      0.0      0.0      0.0   100    35.0     0.063    -9.9    0.000    0.000     100        0.00    0.000    0.000     271.9    271.9    0.67    81.2     283.6      78.3      58.6      28.7      28.7      16.2    0.000     0.000     0.000     0.000     0.000    0.67     0.00    0.00      0   -9.90   -9.00       14.0       11.8       11.8       11.8       11.8       11.7       11.7       11.7       11.7       11.7       11.7       11.7        0.0        0.0        0.0        0.0        0.0        0.0        0.0        0.0        0.0        0.0        0.0        0.0      2.4       0.3      26.6      29.5      32.5    422.57
    17     7  2024    17     2     271.9     1.7      0.0    0.0    1.7    0.0      1.4      0.0   -9.90      0.2      0.2    100      0.0      0.0   100      0.3     0.3     100     20.3    0.70      0      0      0      0      0     2.3     2.3      0     0.04      0.0      0.0      0.0   100    35.0     0.077    -9.9    0.000    0.000     100        0.00    0.000    0.000     271.9    271.9    0.70    84.2     295.2      81.5      60.9      29.8      29.8      16.9    0.000     0.000     0.000     0.000     0.000    0.70     0.00    0.00      0   -9.90   -9.00       13.4       11.9       11.9       11.8       11.8       11.8       11.8       11.7       11.7       11.7       11.7       11.7        0.0        0.0        0.0        0.0        0.0        0.0        0.0        0.0        0.0        0.0        0.0        0.0      1.7       0.2      26.5      28.8      31.1    422.57
    18     7  2024    18     2     278.1     8.1      0.0    0.0    8.0    0.1      1.6      0.0   -9.90      0.2      0.2    100      0.0      0.0   100      0.2     0.2     100     19.7    0.73      0      0      0      0      0     2.7     2.7      0     0.05      0.0      0.0      0.0   100    35.0     0.094    -9.9    0.000    0.000     100        0.00    0.000    0.000     278.1    278.1    0.73    93.6     306.5      84.6      63.2      31.0      31.0      17.6    0.000     0.000     0.000     0.000     0.000    0.73     0.00    0.00      0   -9.90   -9.00       19.9       11.9       11.9       11.8       11.8       11.8       11.8       11.7       11.7       11.7       11.7       11.7        0.0        0.0        0.0        0.0        0.0        0.0        0.0        0.0        0.0        0.0        0.0        0.0      8.1       0.2      25.4      27.7      30.0    422.57
    19     7  2024    19     2     281.8     7.8      0.0    0.0    7.7    0.0      3.8      0.0   -9.90      0.3      0.3    100      0.0      0.0   100      0.3     0.3     100     19.5    0.75      0      0      0      0      0     3.2     3.2      0     0.06      0.0      0.0      0.0   100    35.0     0.113    -9.9    0.000    0.000     100        0.00    0.000    0.000     281.8    281.8    0.75    99.3     317.7      87.7      65.6      32.2      32.2      18.3    0.000     0.000     0.000     0.000     0.000    0.75     0.00    0.00      0   -9.90   -9.00       20.2       12.3       12.5       12.1       12.0       11.9       11.9       11.8       11.8       11.8       11.8       11.8        0.0        0.0        0.0        0.0        0.0        0.0        0.0        0.0        0.0        0.0        0.0        0.0      7.8       0.3      25.0      28.3      31.7    422.57
    20     7  2024    20     2     276.7     1.4      0.0    0.0    1.4    0.0      6.2      0.0   -9.90      0.3      0.3    100      0.0      0.0   100      0.3     0.3     100     20.3    0.78      0      0      0      0      0     3.7     3.7      0     0.06      0.0      0.0      0.0   100    35.0     0.136    -9.9    0.000    0.000     100        0.00    0.000    0.000     276.7    276.7    0.78    96.3     328.7      90.8      67.9      33.3      33.3      18.9    0.000     0.000     0.000     0.000     0.000    0.78     0.00    0.00      0   -9.90   -9.00       13.1       12.4       12.6       12.3       12.2       12.0       12.0       11.9       11.9       11.8       11.8       11.8        0.0        0.0        0.0        0.0        0.0        0.0        0.0        0.0        0.0        0.0        0.0        0.0      1.4       0.2      26.6      29.2      31.9    422.57
    21     7  2024    21     2     271.5     0.2      0.0    0.0    0.2    0.0      5.1      0.0   -9.90      0.3      0.3    100      0.0      0.0   100      0.3     0.3     100     20.2    0.81      0      0      0      0      0     4.4     4.4      0     0.08      0.0      0.0      0.0   100    35.0     0.163    -9.9    0.000    0.000     100        0.00    0.000    0.000     271.5    271.5    0.81    95.1     339.6      93.8      70.1      34.4      34.4      19.5    0.000     0.000     0.000     0.000     0.000    0.81     0.00    0.00      0   -9.90   -9.00       11.6       11.9       11.9       11.9       11.9       11.9       11.8       11.8       11.8       11.8       11.8       11.8        0.0        0.0        0.0        0.0        0.0        0.0        0.0        0.0        0.0        0.0        0.0        0.0      0.2       0.2      26.4      29.1      31.9    422.57
    22     7  2024    22     2     269.1     0.1      0.0    0.0    0.1    0.0      2.2      0.0   -9.90      0.3      0.3     98      0.0      0.0   100      0.3     0.3      98     20.4    0.83      0      0      0      0      0     5.2     5.2      0     0.09      0.0      0.0      0.0   100    35.0     0.194    -9.9    0.000    0.000     100        0.00    0.000    0.000     269.1    269.1    0.83    96.7     350.3      96.7      72.3      35.5      35.5      20.2    0.000     0.000     0.000     0.000     0.000    0.83     0.00    0.00      0   -9.90   -9.00       11.4       11.7       11.8       11.8       11.7       11.7       11.7       11.7       11.7       11.7       11.7       11.7        0.0        0.0        0.0        0.0        0.0        0.0        0.0        0.0        0.0        0.0        0.0        0.0      0.1       0.3      26.8      29.8      32.8    422.57
    23     7  2024    23     2     269.4     1.1      0.0    0.0    1.1    0.0      0.7      0.0   -9.90      0.2      0.2    100      0.0      0.0   100      0.2     0.2     100     20.3    0.86      0      0      0      0      0     6.1     6.1      0     0.10      0.0      0.0      0.0   100    35.0     0.231    -9.9    0.000    0.000     100        0.00    0.000    0.000     269.4    269.4    0.86   100.3     360.9      99.7      74.4      36.5      36.5      20.8    0.000     0.000     0.000     0.000     0.000    0.86     0.00    0.00      0   -9.90   -9.00       12.3       11.7       11.7       11.7       11.7       11.7       11.7       11.7       11.7       11.7       11.7       11.7        0.0        0.0        0.0        0.0        0.0        0.0        0.0        0.0        0.0        0.0        0.0        0.0      1.1       0.2      26.6      28.4      30.3    422.57
    24     7  2024    24     2     273.1     4.3      0.0    0.0    4.3    0.0      0.4      0.0   -9.90      0.2      0.2    100      0.0      0.0   100      0.3     0.3     100     20.1    0.88      0      0      0      0      0     7.2     7.2      0     0.12      0.0      0.0      0.0   100    35.0     0.274    -9.9    0.000    0.000     100        0.00    0.000    0.000     273.1    273.1    0.88   107.0     371.4     102.5      76.6      37.6      37.6      21.4    0.000     0.000     0.000     0.000     0.000    0.88     0.00    0.00      0   -9.90   -9.00       15.9       11.7       11.8       11.7       11.7       11.7       11.7       11.7       11.7       11.7       11.7       11.7        0.0        0.0        0.0        0.0        0.0        0.0        0.0        0.0        0.0        0.0        0.0        0.0      4.3       0.2      26.1      28.6      31.0    422.57
    25     7  2024    25     2     290.2    20.7      0.0    0.0   18.8    1.9      1.6      0.0   -9.90      0.1      0.1    100      0.0      0.0   100      0.1     0.1     100     18.4    0.91      0      0      0      0      0     8.5     8.5      0     0.14      0.0      0.0      0.0   100    35.0     0.324    -9.9    0.000    0.000     100        0.00    0.000    0.000     290.2    290.2    0.91   126.4     381.7     105.4      78.4      38.5      38.5      22.0    0.000     0.000     0.000     0.000     0.000    0.91     0.00    0.00      0   -9.90   -9.00       31.2       12.0       12.1       11.9       11.8       11.8       11.8       11.8       11.7       11.7       11.7       11.7        0.0        0.0        0.0        0.0        0.0        0.0        0.0        0.0        0.0        0.0        0.0        0.0     20.7       0.1      25.6      26.4      27.2    422.57
    26     7  2024    26     2     336.8    99.8      0.0    0.0   56.0   43.8      9.1      0.0   -9.90      0.2      0.2    100      0.0      0.0   100      0.3     0.3     100     19.5    0.93      0      0      0      0      0    10.0    10.0      0     0.17      0.0      0.0      0.0   100    35.0     0.383    -9.9    0.000    0.000     100        0.00    0.000    0.000     336.8    336.8    0.93   173.2     392.0     108.2      80.9      39.7      39.7      22.6    0.000     0.000     0.000     0.000     0.000    0.93     0.00    0.00      0   -9.90   -9.00       42.0       31.1       13.5       12.8       12.4       12.2       12.1       12.0       12.0       11.9       11.9       11.8        0.0        0.0        0.0        0.0        0.0        0.0        0.0        0.0        0.0        0.0        0.0        0.0     99.8       0.2      25.0      27.8      30.5    422.57
    27     7  2024    27     2     299.7     1.8      0.0    0.0    1.8    0.0     38.6      0.0   -9.90      0.2      0.2    100      0.1      0.1   100      0.3     0.3     100     20.0    0.95      0      0      0      0      0    11.8    11.8      0     0.20      0.1      0.1      0.1   100    35.0     0.452    -9.9    0.000    0.000     100        0.00    0.000    0.000     299.7    299.7    0.95   130.1     402.2     111.0      83.1      40.8      40.8      23.2    0.000     0.000     0.000     0.000     0.000    0.95     0.00    0.00      0   -9.90   -9.00       13.3       11.7       15.1       14.6       14.0       13.6       13.1       12.9       12.7       12.5       12.4       12.3        0.0        0.0        0.0        0.0        0.0        0.0        0.0        0.0        0.0        0.0        0.0        0.0      1.8       0.3      26.1      29.0      32.0    422.57
    28     7  2024    28     2     278.1     0.3      0.0    0.0    0.3    0.0     21.6      0.0   -9.90      0.2      0.2    100      0.1      0.1   100      0.3     0.3     100     20.0    0.98      0      0      0      0      0    14.0    14.0      0     0.23      0.1      0.1      0.1   100    35.0     0.532    -9.9    0.000    0.000     100        0.00    0.000    0.000     278.1    278.1    0.98   118.3     412.2     113.8      85.1      41.8      41.8      23.8    0.000     0.000     0.000     0.000     0.000    0.98     0.00    0.00      0   -9.90   -9.00       11.8       11.8       12.5       12.4       12.2       12.2       12.2       12.1       12.1       12.1       12.0       12.0        0.0        0.0        0.0        0.0        0.0        0.0        0.0        0.0        0.0        0.0        0.0        0.0      0.3       0.2      26.1      28.9      31.7    422.57
    29     7  2024    29     2     270.8     0.0      0.0    0.0    0.0    0.0      7.1      0.0   -9.90      0.2      0.2     99      0.1      0.1   100      0.3     0.3      99     19.8    1.00      0      0      0      0      0    16.5    16.5      0     0.27      0.1      0.1      0.1   100    35.0     0.626    -9.9    0.000    0.000     100        0.00    0.000    0.000     270.8    270.8    1.00   117.4     422.2     116.6      87.2      42.9      42.9      24.4    0.000     0.000     0.000     0.000     0.000    1.00     0.00    0.00      0   -9.90   -9.00       11.4       11.7       11.9       11.9       11.8       11.8       11.8       11.8       11.8       11.8       11.8       11.8        0.0        0.0        0.0        0.0        0.0        0.0        0.0        0.0        0.0        0.0        0.0        0.0      0.0       0.2      25.6      28.4      31.2    422.57
    30     7  2024    30     2     268.9     0.2      0.0    0.0    0.2    0.0      1.9      0.0   -9.90      0.2      0.2    100      0.1      0.1   100      0.2     0.2     100     20.3    1.02      0      0      0      0      0    19.4    19.4      0     0.31      0.1      0.1      0.1   100    35.0     0.734    -9.9    0.000    0.000     100        0.00    0.000    0.000     268.9    268.9    1.02   119.3     432.0     119.3      89.1      43.8      43.8      25.0    0.000     0.000     0.000     0.000     0.000    1.02     0.00    0.00      0   -9.90   -9.00       11.4       11.7       11.7       11.7       11.7       11.7       11.7       11.7       11.7       11.7       11.7       11.7        0.0        0.0        0.0        0.0        0.0        0.0        0.0        0.0        0.0        0.0        0.0        0.0      0.2       0.2      26.6      28.9      31.2    422.57
    31     7  2024    31     2     269.3     1.1      0.0    0.0    1.1    0.0      0.5      0.0   -9.90      0.2      0.2    100      0.1      0.1   100      0.3     0.3     100     20.0    1.05      0      0      0      0      0    22.9    22.9      0     0.36      0.1      0.1      0.1   100    35.0     0.859    -9.9    0.000    0.000     100        0.00    0.000    0.000     269.3    269.3    1.05   122.6     441.8     122.0      91.2      44.8      44.8      25.6    0.000     0.000     0.000     0.000     0.000    1.05     0.00    0.00      0   -9.90   -9.00       12.3       11.7       11.7       11.7       11.7       11.7       11.7       11.7       11.7       11.7       11.7       11.7        0.0        0.0        0.0        0.0        0.0        0.0        0.0        0.0        0.0        0.0        0.0        0.0      1.1       0.2      26.0      28.7      31.3    422.57
     1     8  2024    32     2     271.1     2.4      0.0    0.0    2.4    0.0      0.3      0.0   -9.90      0.2      0.2    100      0.1      0.1   100      0.3     0.3     100     19.8    1.07      0      0      0      0      0    27.0    27.0      0     0.41      0.1      0.1      0.1   100    35.0     1.003    -9.9    0.000    0.000     100        0.00    0.000    0.000     271.1    271.1    1.07   127.1     451.5     124.7      93.3      45.9      45.9      26.1    0.000     0.000     0.000     0.000     0.000    1.07     0.00    0.00      0   -9.90   -9.00       13.9       11.7       11.8       11.7       11.7       11.7       11.7       11.7       11.7       11.7       11.7       11.7        0.0        0.0        0.0        0.0        0.0        0.0        0.0        0.0        0.0        0.0        0.0        0.0      2.4       0.2      25.6      28.4      31.2    422.57
     2     8  2024    33     2     269.9     0.0      0.0    0.0    0.0    0.0      0.9      0.0   -9.90      0.1      0.1     98      0.1      0.1   100      0.3     0.3      99     19.9    1.09      0      0      0      0      0    31.8    31.8      0     0.47      0.1      0.1      0.1   100    35.0     1.168    -9.9    0.000    0.000     100        0.00    0.000    0.000     269.9    269.9    1.09   128.4     461.2     127.3      95.2      46.8      46.8      26.7    0.000     0.000     0.000     0.000     0.000    1.09     0.00    0.00      0   -9.90   -9.00       11.7       11.9       11.9       11.8       11.8       11.8       11.7       11.7       11.7       11.7       11.7       11.7        0.0        0.0        0.0        0.0        0.0        0.0        0.0        0.0        0.0        0.0        0.0        0.0      0.0       0.2      25.9      28.7      31.5    422.57
     3     8  2024    34     2     268.9     0.0      0.0    0.0    0.0    0.0      0.8      0.0   -9.90      0.1      0.1    100      0.1      0.1   100      0.3     0.3     100     19.8    1.12      0      0      0      0      0    37.5    37.5      0     0.54      0.1      0.1      0.1   100    35.0     1.357    -9.9    0.000    0.000     100        0.00    0.000    0.000     268.9    268.9    1.12   130.0     470.7     130.0      97.3      47.8      47.8      27.3    0.000     0.000     0.000     0.000     0.000    1.12     0.00    0.00      0   -9.90   -9.00       11.4       11.7       11.8       11.7       11.7       11.7       11.7       11.7       11.7       11.7       11.7       11.7        0.0        0.0        0.0        0.0        0.0        0.0        0.0        0.0        0.0        0.0        0.0        0.0      0.0       0.3      25.7      28.6      31.6    422.57
     4     8  2024    35     2     273.8     5.5      0.0    0.0    5.5    0.0      0.4      0.0   -9.90      0.1      0.1    100      0.1      0.1   100      0.1     0.1     100     18.3    1.14      0      0      0      0      0    44.3    44.3      0     0.61      0.1      0.1      0.1   100    35.0     1.571    -9.9    0.000    0.000     100        0.00    0.000    0.000     273.8    273.8    1.14   137.7     480.2     132.6      98.7      48.5      48.5      27.8    0.000     0.000     0.000     0.000     0.000    1.14     0.00    0.00      0   -9.90   -9.00       16.8       11.7       11.7       11.7       11.7       11.7       11.7       11.7       11.7       11.7       11.7       11.7        0.0        0.0        0.0        0.0        0.0        0.0        0.0        0.0        0.0        0.0        0.0        0.0      5.5       0.1      25.3      26.3      27.3    422.57
     5     8  2024    36     2     318.2    71.0      0.0    0.0   46.4   24.7      1.8      0.0   -9.90      0.1      0.1    100      0.1      0.1   100      0.2     0.2     100     19.1    1.16      0      0      0      0      0    51.8    51.8      0     0.69      0.1      0.1      0.1   100    35.0     1.812    -9.9    0.000    0.000     100        0.00    0.000    0.000     318.2    318.2    1.16   184.3     489.6     135.2     100.9      49.6      49.6      28.4    0.000     0.000     0.000     0.000     0.000    1.16     0.00    0.00      0   -9.90   -9.00       42.1       23.6       12.2       11.9       11.9       11.8       11.8       11.8       11.8       11.7       11.7       11.7        0.0        0.0        0.0        0.0        0.0        0.0        0.0        0.0        0.0        0.0        0.0        0.0     71.0       0.2      25.3      27.1      28.9    422.57
     6     8  2024    37     2     301.9    10.2      0.0    0.0   10.0    0.2     26.0      0.0   -9.90      0.1      0.1    100      0.2      0.2   100      0.3     0.3     100     19.8    1.18      0      0      0      0      0    58.4    58.4      0     0.75      0.2      0.2      0.2   100    35.0     2.075    -9.9    0.000    0.000     100        0.00    0.000    0.000     301.9    301.9    1.18   164.7     499.0     137.8     103.0      50.7      50.7      28.9    0.000     0.000     0.000     0.000     0.000    1.18     0.00    0.00      0   -9.90   -9.00       21.6       11.7       15.0       14.2       13.6       13.1       12.8       12.6       12.4       12.3       12.2       12.1        0.0        0.0        0.0        0.0        0.0        0.0        0.0        0.0        0.0        0.0        0.0        0.0     10.2       0.2      25.6      28.2      30.9    422.57
     7     8  2024    38     2     282.2     1.6      0.0    0.0    1.6    0.0     21.1      0.0   -9.90      0.1      0.1    100      0.2      0.2   100      0.2     0.2     100     20.0    1.20      0      0      0      0      0    64.0    64.0      0     0.80      0.2      0.2      0.2   100    35.0     2.354    -9.9    0.000    0.000     100        0.00    0.000    0.000     282.2    282.2    1.20   149.6     508.3     140.3     104.9      51.6      51.6      29.5    0.000     0.000     0.000     0.000     0.000    1.20     0.00    0.00      0   -9.90   -9.00       13.3       12.4       12.6       12.5       12.4       12.4       12.3       12.2       12.1       12.1       12.1       12.0        0.0        0.0        0.0        0.0        0.0        0.0        0.0        0.0        0.0        0.0        0.0        0.0      1.6       0.2      26.0      28.2      30.4    422.57
     8     8  2024    39     2     278.2     5.5      0.0    0.0    5.5    0.0      9.3      0.0   -9.90      0.1      0.1    100      0.2      0.2   100      0.3     0.3     100     19.9    1.23      0      0      0      0      0    68.8    68.8      0     0.84      0.2      0.2      0.2   100    35.0     2.647    -9.9    0.000    0.000     100        0.00    0.000    0.000     278.2    278.2    1.23   150.8     517.5     142.9     106.9      52.6      52.6      30.0    0.000     0.000     0.000     0.000     0.000    1.23     0.00    0.00      0   -9.90   -9.00       17.3       11.9       12.0       11.9       11.9       11.9       11.9       11.9       11.9       11.9       11.8       11.8        0.0        0.0        0.0        0.0        0.0        0.0        0.0        0.0        0.0        0.0        0.0        0.0      5.5       0.2      25.9      28.5      31.2    422.57
     9     8  2024    40     2     279.2     6.2      0.0    0.0    6.2    0.0      4.9      0.0   -9.90      0.0      0.0    100      0.2      0.2   100      0.3     0.3     100     20.4    1.25      0      0      0      0      0    72.8    72.8      0     0.87      0.2      0.2      0.2   100    35.0     2.950    -9.9    0.000    0.000     100        0.00    0.000    0.000     279.2    279.2    1.25   155.1     526.7     145.4     108.7      53.5      53.5      30.6    0.000     0.000     0.000     0.000     0.000    1.25     0.00    0.00      0   -9.90   -9.00       18.4       12.2       12.2       12.0       11.9       11.9       11.8       11.8       11.8       11.8       11.8       11.8        0.0        0.0        0.0        0.0        0.0        0.0        0.0        0.0        0.0        0.0        0.0        0.0      6.2       0.2      26.8      29.2      31.7    422.57
    10     8  2024    41     2     275.4     1.4      0.0    0.0    1.4    0.0      5.0      0.0   -9.90      0.0      0.0    100      0.2      0.2   100      0.2     0.2     100     20.6    1.27      0      0      0      0      0    76.2    76.2      0     0.89      0.2      0.2      0.2   100    35.0     3.263    -9.9    0.000    0.000     100        0.00    0.000    0.000     275.4    275.4    1.27   153.6     535.8     147.9     110.5      54.3      54.3      31.1    0.000     0.000     0.000     0.000     0.000    1.27     0.00    0.00      0   -9.90   -9.00       13.2       12.3       12.4       12.2       12.1       11.9       11.9       11.9       11.8       11.8       11.8       11.8        0.0        0.0        0.0        0.0        0.0        0.0        0.0        0.0        0.0        0.0        0.0        0.0      1.4       0.2      27.1      28.9      30.7    422.57
    11     8  2024    42     2     273.2     2.0      0.0    0.0    2.0    0.0      4.0      0.0   -9.90      0.0      0.0    100      0.2      0.2   100      0.3     0.3     100     20.1    1.29      0      0      0      0      0    79.1    79.1      0     0.91      0.2      0.2      0.2   100    35.0     3.584    -9.9    0.000    0.000     100        0.00    0.000    0.000     273.2    273.2    1.29   154.3     544.9     150.4     112.6      55.4      55.4      31.6    0.000     0.000     0.000     0.000     0.000    1.29     0.00    0.00      0   -9.90   -9.00       13.7       11.9       11.9       11.9       11.9       11.8       11.8       11.8       11.8       11.8       11.8       11.8        0.0        0.0        0.0        0.0        0.0        0.0        0.0        0.0        0.0        0.0        0.0        0.0      2.0       0.3      26.1      29.0      31.9    422.57
    12     8  2024    43     2     275.2     4.7      0.0    0.0    4.7    0.0      2.5      0.0   -9.90      0.0      0.0    100      0.2      0.2   100      0.2     0.2     100     20.1    1.31      0      0      0      0      0    81.6    81.6      0     0.93      0.2      0.2      0.2   100    35.0     3.910    -9.9    0.000    0.000     100        0.00    0.000    0.000     275.2    275.2    1.31   159.1     553.9     152.9     114.3      56.2      56.2      32.2    0.000     0.000     0.000     0.000     0.000    1.31     0.00    0.00      0   -9.90   -9.00       16.6       11.9       11.9       11.8       11.8       11.8       11.8       11.8       11.8       11.7       11.7       11.7        0.0        0.0        0.0        0.0        0.0        0.0        0.0        0.0        0.0        0.0        0.0        0.0      4.7       0.2      26.2      28.4      30.6    422.57
    13     8  2024    44     2     272.9     0.9      0.0    0.0    0.9    0.0      2.9      0.0   -9.90      0.0      0.0    100      0.2      0.2   100      0.2     0.2     100     20.4    1.33      0      0      0      0      0    83.7    83.7      0     0.95      0.2      0.2      0.2   100    35.0     4.242    -9.9    0.000    0.000     100        0.00    0.000    0.000     272.9    272.9    1.33   159.1     562.8     155.4     116.1      57.2      57.2      32.7    0.000     0.000     0.000     0.000     0.000    1.33     0.00    0.00      0   -9.90   -9.00       12.5       12.1       12.2       12.1       11.9       11.8       11.8       11.8       11.8       11.8       11.8       11.7        0.0        0.0        0.0        0.0        0.0        0.0        0.0        0.0        0.0        0.0        0.0        0.0      0.9       0.2      26.9      29.1      31.3    422.57
    14     8  2024    45     2     270.8     0.6      0.0    0.0    0.6    0.0      2.6      0.0   -9.90      0.0      0.0    100      0.2      0.2   100      0.2     0.2     100     20.2    1.35      0      0      0      0      0    85.4    85.4      0     0.96      0.2      0.2      0.2   100    35.0     4.578    -9.9    0.000    0.000     100        0.00    0.000    0.000     270.8    270.8    1.35   159.6     571.7     157.8     118.0      58.1      58.1      33.2    0.000     0.000     0.000     0.000     0.000    1.35     0.00    0.00      0   -9.90   -9.00       12.2       11.8       11.8       11.8       11.8       11.8       11.8       11.8       11.8       11.7       11.7       11.7        0.0        0.0        0.0        0.0        0.0        0.0        0.0        0.0        0.0        0.0        0.0        0.0      0.6       0.2      26.5      28.7      30.9    422.57
    15     8  2024    46     2     270.3     1.2      0.0    0.0    1.2    0.0      1.4      0.0   -9.90      0.0      0.0    100      0.2      0.2   100      0.2     0.2     100     20.2    1.37      0      0      0      0      0    86.9    86.9      0     0.97      0.2      0.2      0.2   100    35.0     4.917    -9.9    0.000    0.000     100        0.00    0.000    0.000     270.3    270.3    1.37   161.8     580.6     160.3     119.9      59.0      59.0      33.8    0.000     0.000     0.000     0.000     0.000    1.37     0.00    0.00      0   -9.90   -9.00       12.7       11.8       11.8       11.7       11.7       11.7       11.7       11.7       11.7       11.7       11.7       11.7        0.0        0.0        0.0        0.0        0.0        0.0        0.0        0.0        0.0        0.0        0.0        0.0      1.2       0.2      26.4      28.9      31.5    422.57
    16     8  2024    47     2     277.2     8.0      0.0    0.0    8.0    0.1      0.8      0.0   -9.90      0.0      0.0    100      0.2      0.2   100      0.2     0.2     100     19.9    1.40      0      0      0      0      0    88.2    88.2      0     0.98      0.2      0.2      0.2   100    35.0     5.260    -9.9    0.000    0.000     100        0.00    0.000    0.000     277.2    277.2    1.40   171.2     589.4     162.7     121.6      59.9      59.9      34.3    0.000     0.000     0.000     0.000     0.000    1.40     0.00    0.00      0   -9.90   -9.00       19.7       11.8       11.8       11.8       11.7       11.7       11.7       11.7       11.7       11.7       11.7       11.7        0.0        0.0        0.0        0.0        0.0        0.0        0.0        0.0        0.0        0.0        0.0        0.0      8.0       0.2      26.0      27.9      29.9    422.57
    17     8  2024    48     2     282.2     8.4      0.0    0.0    8.3    0.1      3.2      0.0   -9.90      0.0      0.0    100      0.1      0.1   100      0.2     0.2     100     19.1    1.42      0      0      0      0      0    89.3    89.3      0     0.98      0.1      0.1      0.1   100    35.0     5.605    -9.9    0.000    0.000     100        0.00    0.000    0.000     282.2    282.2    1.42   178.1     598.2     165.1     123.1      60.6      60.6      34.8    0.000     0.000     0.000     0.000     0.000    1.42     0.00    0.00      0   -9.90   -9.00       20.9       12.3       12.4       12.1       12.0       11.9       11.8       11.8       11.8       11.8       11.8       11.8        0.0        0.0        0.0        0.0        0.0        0.0        0.0        0.0        0.0        0.0        0.0        0.0      8.4       0.1      26.0      27.1      28.1    422.57
    18     8  2024    49     2     284.0     8.2      0.0    0.0    8.1    0.1      6.0      0.0   -9.90      0.0      0.0    100      0.2      0.2   100      0.2     0.2     100     20.0    1.44      0      0      0      0      0    90.2    90.2      0     0.99      0.2      0.2      0.2   100    35.0     5.952    -9.9    0.000    0.000     100        0.00    0.000    0.000     284.0    284.0    1.44   182.0     606.9     167.5     125.1      61.6      61.6      35.3    0.000     0.000     0.000     0.000     0.000    1.44     0.00    0.00      0   -9.90   -9.00       20.7       12.4       12.6       12.3       12.1       12.0       11.9       11.9       11.9       11.8       11.8       11.8        0.0        0.0        0.0        0.0        0.0        0.0        0.0        0.0        0.0        0.0        0.0        0.0      8.2       0.2      26.2      28.0      29.9    422.57
    19     8  2024    50     2     285.7     9.4      0.0    0.0    9.3    0.1      7.4      0.0   -9.90      0.0      0.0    100      0.2      0.2   100      0.2     0.2     100     19.9    1.46      0      0      0      0      0    90.9    90.9      0     1.00      0.2      0.2      0.2   100    35.0     6.301    -9.9    0.000    0.000     100        0.00    0.000    0.000     285.7    285.7    1.46   185.9     615.5     169.9     126.9      62.5      62.5      35.8    0.000     0.000     0.000     0.000     0.000    1.46     0.00    0.00      0   -9.90   -9.00       21.9       12.4       12.6       12.3       12.1       12.0       12.0       11.9       11.9       11.9       11.8       11.8        0.0        0.0        0.0        0.0        0.0        0.0        0.0        0.0        0.0        0.0        0.0        0.0      9.4       0.2      26.3      27.9      29.5    422.57
    20     8  2024    51     2     287.8    10.8      0.0    0.0   10.6    0.3      8.3      0.0   -9.90      0.0      0.0    100      0.1      0.1   100      0.1     0.1     100     18.8    1.48      0      0      0      0      0    91.6    91.6      0     1.00      0.1      0.1      0.1   100    35.0     6.652    -9.9    0.000    0.000     100        0.00    0.000    0.000     287.8    287.8    1.48   190.3     624.2     172.3     128.4      63.2      63.2      36.3    0.000     0.000     0.000     0.000     0.000    1.48     0.00    0.00      0   -9.90   -9.00       23.4       12.5       12.7       12.4       12.2       12.1       12.0       11.9       11.9       11.9       11.8       11.8        0.0        0.0        0.0        0.0        0.0        0.0        0.0        0.0        0.0        0.0        0.0        0.0     10.8       0.1      25.9      26.8      27.8    422.57
    21     8  2024    52     2     281.8     3.8      0.0    0.0    3.8    0.0      9.6      0.0   -9.90      0.0      0.0    100      0.2      0.2   100      0.2     0.2     100     19.6    1.50      0      0      0      0      0    92.1    92.1      0     1.00      0.2      0.2      0.2   100    35.0     7.003    -9.9    0.000    0.000     100        0.00    0.000    0.000     281.8    281.8    1.50   186.4     632.8     174.7     130.6      64.3      64.3      36.8    0.000     0.000     0.000     0.000     0.000    1.50     0.00    0.00      0   -9.90   -9.00       15.9       12.6       12.9       12.4       12.2       12.1       12.0       12.0       11.9       11.9       11.9       11.9        0.0        0.0        0.0        0.0        0.0        0.0        0.0        0.0        0.0        0.0        0.0        0.0      3.8       0.2      25.3      27.6      29.8    422.57
    22     8  2024    53     2     278.3     4.2      0.0    0.0    4.2    0.0      7.5      0.0   -9.90      0.0      0.0    100      0.2      0.2   100      0.2     0.2     100     19.8    1.52      0      0      0      0      0    92.6    92.6      0     1.01      0.2      0.2      0.2   100    35.0     7.356    -9.9    0.000    0.000     100        0.00    0.000    0.000     278.3    278.3    1.52   185.7     641.3     177.0     132.4      65.2      65.2      37.3    0.000     0.000     0.000     0.000     0.000    1.52     0.00    0.00      0   -9.90   -9.00       16.3       12.1       12.2       12.1       12.0       12.0       11.9       11.9       11.9       11.8       11.8       11.8        0.0        0.0        0.0        0.0        0.0        0.0        0.0        0.0        0.0        0.0        0.0        0.0      4.2       0.2      25.6      28.1      30.6    422.57
    23     8  2024    54     2     277.4     4.5      0.0    0.0    4.5    0.0      5.1      0.0   -9.90      0.0      0.0    100      0.3      0.3   100      0.3     0.3     100     20.0    1.54      0      0      0      0      0    93.0    93.0      0     1.01      0.3      0.3      0.3   100    35.0     7.710    -9.9    0.000    0.000     100        0.00    0.000    0.000     277.4    277.4    1.54   187.5     649.8     179.4     134.4      66.3      66.3      37.8    0.000     0.000     0.000     0.000     0.000    1.54     0.00    0.00      0   -9.90   -9.00       16.5       12.1       12.2       12.0       11.9       11.9       11.9       11.8       11.8       11.8       11.8       11.8        0.0        0.0        0.0        0.0        0.0        0.0        0.0        0.0        0.0        0.0        0.0        0.0      4.5       0.3      26.1      29.4      32.7    422.57
    24     8  2024    55     2     273.1     0.4      0.0    0.0    0.4    0.0      4.4      0.0   -9.90      0.0      0.0    100      0.2      0.2   100      0.2     0.2     100     19.1    1.56      0      0      0      0      0    93.3    93.3      0     1.01      0.2      0.2      0.2   100    35.0     8.064    -9.9    0.000    0.000     100        0.00    0.000    0.000     273.1    273.1    1.56   185.7     658.3     181.7     135.9      67.0      67.0      38.3    0.000     0.000     0.000     0.000     0.000    1.56     0.00    0.00      0   -9.90   -9.00       12.0       12.1       12.2       12.1       12.0       11.9       11.9       11.8       11.8       11.8       11.8       11.8        0.0        0.0        0.0        0.0        0.0        0.0        0.0        0.0        0.0        0.0        0.0        0.0      0.4       0.2      24.6      27.1      29.7    422.57
    25     8  2024    56     3     270.1     0.2      0.0    0.0    0.2    0.0      2.9      0.0   -9.90      0.0      0.0    100      0.3      0.3   100      0.3     0.3     100     19.9    1.58      0      0      0      0      0    93.5    93.5      0     1.01      0.3      0.3      0.3   100    35.0     8.420    -9.9    0.000    0.000     100        0.00    0.000    0.000     270.1    270.1    1.58   185.2     666.7     184.0     137.8      67.9      67.9      38.8    0.000     0.000     0.000     0.000     0.000    1.58     0.00    0.00      0   -9.90   -9.00       11.7       11.8       11.8       11.8       11.8       11.8       11.8       11.8       11.8       11.8       11.7       11.7        0.0        0.0        0.0        0.0        0.0        0.0        0.0        0.0        0.0        0.0        0.0        0.0      0.2       0.3      25.8      28.8      31.9    422.57
    26     8  2024    57     3     276.2     7.5      0.0    0.0    7.5    0.0      1.1      0.0   -9.90      0.0      0.0    100      0.2      0.2   100      0.2     0.2     100     19.7    1.60      0      0      0      0      0    93.7    93.7      0     1.01      0.2      0.2      0.2   100    35.0     8.775    -9.9    0.000    0.000     100        0.00    0.000    0.000     276.2    276.2    1.60   193.9     675.1     186.4     139.4      68.7      68.7      39.3    0.000     0.000     0.000     0.000     0.000    1.60     0.00    0.00      0   -9.90   -9.00       19.0       11.7       11.7       11.7       11.7       11.7       11.7       11.7       11.7       11.7       11.7       11.7        0.0        0.0        0.0        0.0        0.0        0.0        0.0        0.0        0.0        0.0        0.0        0.0      7.5       0.2      25.3      28.0      30.7    422.57
    27     8  2024    58     3     279.0     5.8      0.0    0.0    5.8    0.0      2.8      0.0   -9.90      0.0      0.0    100      0.2      0.2   100      0.2     0.2     100     20.2    1.62      0      0      0      0      0    93.9    93.9      0     1.02      0.2      0.2      0.2   100    35.0     9.131     1.5    0.137    0.153     100        0.95    0.000    0.000     279.0    279.0    1.62   198.7     683.5     188.7     141.1      69.6      69.6      39.8    0.000     0.000     0.000     0.000     0.000    1.62     0.00    0.00      0   -9.90   -9.00       18.1       12.2       12.4       12.1       11.9       11.9       11.8       11.8       11.8       11.8       11.8       11.7        0.0        0.0        0.0        0.0        0.0        0.0        0.0        0.0        0.0        0.0        0.0        0.0      5.8       0.2      26.4      28.9      31.4    422.57
    28     8  2024    59     3     274.4     0.5      0.0    0.0    0.5    0.0      4.8      0.0   -9.90      0.0      0.0    100      0.2      0.2   100      0.2     0.2     100     20.5    1.64      0      0      0      0      0    94.0    94.0      0     1.02      0.2      0.2      0.2   100    35.0     9.487     1.8    0.175    0.194     100        1.19    0.000    0.000     274.4    274.4    1.64   196.2     691.8     191.0     142.9      70.4      70.4      40.3    0.000     0.000     0.000     0.000     0.000    1.64     0.00    0.00      0   -9.90   -9.00       12.2       12.2       12.4       12.1       12.1       11.9       11.9       11.9       11.8       11.8       11.8       11.8        0.0        0.0        0.0        0.0        0.0        0.0        0.0        0.0        0.0        0.0        0.0        0.0      0.5       0.2      27.1      29.5      32.0    422.57
    29     8  2024    60     3     271.0     0.5      0.0    0.0    0.5    0.0      3.7      0.0   -9.90      0.0      0.0    100      0.2      0.2   100      0.2     0.2     100     20.1    1.66      0      0      0      0      0    95.2    95.2      0     1.02      0.2      0.2      0.2   100    35.0     9.846     2.3    0.222    0.247     100        1.49    0.000    0.000     271.0    271.0    1.66   195.3     700.1     193.3     144.5      71.2      71.2      40.8    0.000     0.000     0.000     0.000     0.000    1.66     0.00    0.00      0   -9.90   -9.00       12.0       11.8       11.9       11.8       11.8       11.8       11.8       11.8       11.8       11.8       11.8       11.8        0.0        0.0        0.0        0.0        0.0        0.0        0.0        0.0        0.0        0.0        0.0        0.0      0.5       0.2      26.2      28.6      30.9    422.57
    30     8  2024    61     3     269.6     0.5      0.0    0.0    0.5    0.0      1.6      0.0   -9.90      0.0      0.0    100      0.2      0.2   100      0.2     0.2     100     19.9    1.68     -9      0      0      0      0    95.3    95.3      0     1.02      0.2      0.2      0.2   100    35.0    10.205     2.8    0.281    0.312     100        1.86    0.000    0.000     269.6    269.6    1.68   196.3     708.4     195.5     146.3      72.1      72.1      41.3    0.000     0.000     0.000     0.000     0.000    1.68     0.00    0.00      0   -9.90   -9.00       12.0       11.7       11.7       11.7       11.7       11.7       11.7       11.7       11.7       11.7       11.7       11.7        0.0        0.0        0.0        0.0        0.0        0.0        0.0        0.0        0.0        0.0        0.0        0.0      0.5       0.2      25.8      28.3      30.9    422.57
    31     8  2024    62     3     270.1     1.4      0.0    0.0    1.4    0.0      0.6      0.0   -9.90      0.0      0.0    100      0.2      0.2   100      0.2     0.2     100     20.1    1.70     -9      0      0      0      0    95.4    95.4      0     1.02      0.2      0.2      0.2   100    35.0    10.564     3.3    0.354    0.393     100        2.30    0.000    0.000     270.1    270.1    1.70   199.3     716.6     197.8     147.9      72.9      72.9      41.8    0.000     0.000     0.000     0.000     0.000    1.70     0.00    0.00      0   -9.90   -9.00       12.9       11.7       11.7       11.7       11.7       11.7       11.7       11.7       11.7       11.7       11.7       11.7        0.0        0.0        0.0        0.0        0.0        0.0        0.0        0.0        0.0        0.0        0.0        0.0      1.4       0.2      26.1      28.3      30.6    422.57
     1     9  2024    63     3     270.1     0.9      0.0    0.0    0.9    0.0      0.6      0.0   -9.90      0.0      0.0    100      0.3      0.3   100      0.3     0.3     100     19.6    1.71     -9      0      0      0      0    95.5    95.5      0     1.02      0.3      0.3      0.3   100    35.0    10.921     4.1    0.444    0.493     100        2.84    0.000    0.000     270.1    270.1    1.71   201.6     724.8     200.1     149.8      73.9      73.9      42.3    0.000     0.000     0.000     0.000     0.000    1.71     0.00    0.00      0   -9.90   -9.00       12.5       11.8       11.8       11.8       11.7       11.7       11.7       11.7       11.7       11.7       11.7       11.7        0.0        0.0        0.0        0.0        0.0        0.0        0.0        0.0        0.0        0.0        0.0        0.0      0.9       0.3      25.3      28.3      31.4    422.57
     2     9  2024    64     3     282.1    13.5      0.0    0.0   13.0    0.6      0.7      0.0   -9.90      0.0      0.0    100      0.3      0.3   100      0.3     0.3     100     19.8    1.73     -9      0      0      0      0    95.6    95.6      0     1.02      0.3      0.3      0.3   100    35.0    11.278     4.9    0.555    0.616     100        3.49    0.000    0.000     282.1    282.1    1.73   215.8     732.9     202.3     151.4      74.7      74.7      42.7    0.000     0.000     0.000     0.000     0.000    1.73     0.00    0.00      0   -9.90   -9.00       24.8       11.8       11.8       11.8       11.7       11.7       11.7       11.7       11.7       11.7       11.7       11.7        0.0        0.0        0.0        0.0        0.0        0.0        0.0        0.0        0.0        0.0        0.0        0.0     13.5       0.2      25.5      28.3      31.1    422.57
     3     9  2024    65     3     276.8     0.2      0.0    0.0    0.2    0.0      5.3      0.0   -9.90      0.0      0.0    100      0.2      0.2   100      0.2     0.2     100     20.5    1.75     -9      0      0      0      0    95.6    95.6      0     1.02      0.2      0.2      0.2   100    35.0    11.634     5.9    0.689    0.766     100        4.28    0.000    0.000     276.8    276.8    1.75   212.3     741.1     204.6     152.9      75.3      75.3      43.2    0.000     0.000     0.000     0.000     0.000    1.75     0.00    0.00      0   -9.90   -9.00       12.6       12.6       12.9       12.4       12.1       12.0       11.9       11.9       11.8       11.8       11.8       11.8        0.0        0.0        0.0        0.0        0.0        0.0        0.0        0.0        0.0        0.0        0.0        0.0      0.2       0.2      27.0      29.0      30.9    422.57
     4     9  2024    66     3     272.6     0.9      0.0    0.0    0.9    0.0      5.0      0.0   -9.90      0.0      0.0    100      0.2      0.2   100      0.2     0.2     100     20.4    1.77     -9      0      0      0      0    95.7    95.7      0     1.01      0.2      0.2      0.2   100    35.0    11.989     7.1    0.852    0.947     100        5.22    0.000    0.000     272.6    272.6    1.77   210.3     749.2     206.8     154.7      76.3      76.3      43.7    0.000     0.000     0.000     0.000     0.000    1.77     0.00    0.00      0   -9.90   -9.00       12.5       11.8       12.0       11.9       11.9       11.9       11.9       11.8       11.8       11.8       11.8       11.8        0.0        0.0        0.0        0.0        0.0        0.0        0.0        0.0        0.0        0.0        0.0        0.0      0.9       0.2      26.8      29.1      31.4    422.57
     5     9  2024    67     3     271.2     1.4      0.0    0.0    1.4    0.0      2.6      0.0   -9.90      0.0      0.0    100      0.2      0.2   100      0.2     0.2     100     20.4    1.79     -9      0      0      0      0    95.7    95.7      0     1.01      0.2      0.2      0.2   100    35.0    12.343     8.5    1.046    1.162     100        6.32    0.000    0.000     271.2    271.2    1.79   211.4     757.2     209.0     156.2      77.0      77.0      44.2    0.000     0.000     0.000     0.000     0.000    1.79     0.00    0.00      0   -9.90   -9.00       13.0       11.8       11.8       11.8       11.8       11.8       11.8       11.8       11.8       11.7       11.7       11.7        0.0        0.0        0.0        0.0        0.0        0.0        0.0        0.0        0.0        0.0        0.0        0.0      1.4       0.2      26.7      28.7      30.6    422.57
     6     9  2024    68     3     269.6     0.0      0.0    0.0    0.0    0.0      1.4      0.0   -9.90      0.0      0.0    100      0.2      0.2   100      0.2     0.2     100     19.9    1.81     -9      0      0      0      0    95.8    95.8      0     1.01      0.2      0.2      0.2   100    35.0    12.697    10.0    1.269    1.410     100        7.56    0.000    0.000     269.6    269.6    1.81   212.1     765.3     211.2     158.1      77.9      77.9      44.6    0.000     0.000     0.000     0.000     0.000    1.81     0.00    0.00      0   -9.90   -9.00       11.6       11.8       11.8       11.8       11.8       11.7       11.7       11.7       11.7       11.7       11.7       11.7        0.0        0.0        0.0        0.0        0.0        0.0        0.0        0.0        0.0        0.0        0.0        0.0      0.0       0.2      25.7      28.3      30.9    422.57
     7     9  2024    69     4     268.7     0.1      0.0    0.0    0.1    0.0      0.7      0.0   -9.90      0.0      0.0    100      0.3      0.3   100      0.3     0.3     100     19.6    1.83     -9      0      0      0      0    95.8    95.8      0     1.01      0.3      0.3      0.3   100    35.0    13.049    11.5    1.502    1.669     100        8.81    0.000    0.000     268.7    268.7    1.83   213.5     773.3     213.5     159.8      78.8      78.8      45.1    0.000     0.000     0.000     0.000     0.000    1.83     0.00    0.00      0   -9.90   -9.00       11.4       11.7       11.7       11.7       11.7       11.7       11.7       11.7       11.7       11.7       11.7       11.7        0.0        0.0        0.0        0.0        0.0        0.0        0.0        0.0        0.0        0.0        0.0        0.0      0.1       0.3      25.1      28.1      31.1    422.57
     8     9  2024    70     4     268.5     0.4      0.0    0.0    0.4    0.0      0.3      0.0   -9.90      0.0      0.0    100      0.3      0.3   100      0.3     0.3     100     19.4    1.85     -9      0      0      0      0    95.8    95.8      0     1.00      0.3      0.3      0.3   100    35.0    13.401    13.0    1.747    1.941     100       10.07    0.000    0.000     268.5    268.5    1.85   215.6     781.3     215.7     161.7      79.8      79.8      45.6    0.000     0.000     0.000     0.000     0.000    1.85     0.00    0.00      0   -9.90   -9.00       11.5       11.7       11.7       11.7       11.7       11.7       11.7       11.7       11.7       11.7       11.7       11.7        0.0        0.0        0.0        0.0        0.0        0.0        0.0        0.0        0.0        0.0        0.0        0.0      0.4       0.3      24.8      28.5      32.2    422.57
     9     9  2024    71     4     269.8     1.5      0.0    0.0    1.5    0.0      0.1      0.0   -9.90      0.0      0.0    100      0.2      0.2   100      0.2     0.2     100     19.2    1.87     -9      0      0      0      0    95.9    95.9      0     1.00      0.2      0.2      0.2   100    35.0    13.751    14.6    2.001    2.224     100       11.41    0.000    0.000     269.8    269.8    1.87   219.0     789.2     217.9     162.7      80.2      80.2      46.1    0.000     0.000     0.000     0.000     0.000    1.87     0.00    0.00      0   -9.90   -9.00       12.9       11.7       11.7       11.7       11.7       11.7       11.7       11.7       11.7       11.7       11.7       11.7        0.0        0.0        0.0        0.0        0.0        0.0        0.0        0.0        0.0        0.0        0.0        0.0      1.5       0.2      25.5      27.2      28.9    422.57
    10     9  2024    72     4     278.9     9.9      0.0    0.0    9.8    0.2      0.4      0.0   -9.90      0.0      0.0    100      0.2      0.2   100      0.2     0.2     100     19.2    1.89     -9      0      0      0      0    95.9    95.9      0     1.00      0.2      0.2      0.2   100    35.0    14.101    16.1    2.267    2.518     100       12.77    0.000    0.000     278.9    278.9    1.89   230.4     797.2     220.0     164.4      81.1      81.1      46.5    0.000     0.000     0.000     0.000     0.000    1.89     0.00    0.00      0   -9.90   -9.00       21.6       11.8       11.8       11.8       11.7       11.7       11.7       11.7       11.7       11.7       11.7       11.7        0.0        0.0        0.0        0.0        0.0        0.0        0.0        0.0        0.0        0.0        0.0        0.0      9.9       0.2      25.2      27.2      29.3    422.57
    11     9  2024    73     4     283.3     8.5      0.0    0.0    8.4    0.1      3.8      0.0   -9.90      0.0      0.0    100      0.2      0.2   100      0.3     0.3     100     19.9    1.90     -9      0      0      0      0    95.9    95.9      0     0.99      0.2      0.2      0.2   100    35.0    14.449    17.6    2.542    2.825     100       14.12    0.000    0.000     283.3    283.3    1.90   236.6     805.1     222.2     166.3      82.0      82.0      47.0    0.000     0.000     0.000     0.000     0.000    1.90     0.00    0.00      0   -9.90   -9.00       21.0       12.4       12.6       12.2       12.0       11.9       11.9       11.8       11.8       11.8       11.8       11.8        0.0        0.0        0.0        0.0        0.0        0.0        0.0        0.0        0.0        0.0        0.0        0.0      8.5       0.2      25.7      28.5      31.2    422.57
    12     9  2024    74     4     280.9     4.8      0.0    0.0    4.8    0.0      6.9      0.0   -9.90      0.0      0.0    100      0.2      0.2   100      0.2     0.2     100     19.7    1.92     -9      0      0      0      0    95.9    95.9      0     0.99      0.2      0.2      0.2   100    35.0    14.797    19.1    2.828    3.143     100       15.50    0.000    0.000     280.9    280.9    1.92   236.2     813.0     224.4     168.0      82.9      82.9      47.5    0.000     0.000     0.000     0.000     0.000    1.92     0.00    0.00      0   -9.90   -9.00       17.0       12.4       12.6       12.3       12.1       12.0       12.0       11.9       11.9       11.9       11.8       11.8        0.0        0.0        0.0        0.0        0.0        0.0        0.0        0.0        0.0        0.0        0.0        0.0      4.8       0.2      25.4      28.1      30.8    422.57
    13     9  2024    75     4     274.2     0.2      0.0    0.0    0.2    0.0      6.6      0.0   -9.90      0.0      0.0    100      0.3      0.3   100      0.3     0.3     100     19.4    1.94     -9      0      0      0      0    95.9    95.9      0     0.99      0.3      0.3      0.3   100    35.0    15.144    20.6    3.125    3.472     100       16.87    0.000    0.000     274.2    274.2    1.94   231.7     820.8     226.6     169.7      83.7      83.7      47.9    0.000     0.000     0.000     0.000     0.000    1.94     0.00    0.00      0   -9.90   -9.00       12.1       12.2       12.3       12.1       12.0       12.0       11.9       11.9       11.8       11.8       11.8       11.8        0.0        0.0        0.0        0.0        0.0        0.0        0.0        0.0        0.0        0.0        0.0        0.0      0.2       0.3      24.8      28.1      31.4    422.57
    14     9  2024    76     4     271.7     1.4      0.0    0.0    1.4    0.0      3.7      0.0   -9.90      0.0      0.0    100      0.2      0.2   100      0.2     0.2     100     19.9    1.96     -9      0     -9      0      0    95.3    95.3      0     0.98      0.2      0.2      0.2   100    35.0    15.486    22.2    3.431    3.812     100       18.30    0.000    0.000     271.7    271.7    1.96   231.7     828.6     228.7     171.1      84.4      84.4      48.4    0.000     0.000     0.000     0.000     0.000    1.96     0.00    0.00      0   -9.90   -9.00       13.0       11.8       11.8       11.8       11.8       11.8       11.8       11.8       11.8       11.8       11.8       11.8        0.0        0.0        0.0        0.0        0.0        0.0        0.0        0.0        0.0        0.0        0.0        0.0      1.4       0.2      25.8      28.3      30.8    422.57
    15     9  2024    77     4     278.5     8.9      0.0    0.0    8.8    0.1      1.8      0.0   -9.90      0.0      0.0    100      0.2      0.2   100      0.2     0.2     100     19.6    1.98     -9      0     -9      0      0    94.6    94.6      0     0.96      0.2      0.2      0.2   100    35.0    15.823    23.7    3.746    4.162     100       19.75    0.000    0.000     278.5    278.5    1.98   240.7     836.4     230.9     172.7      85.2      85.2      48.8    0.000     0.000     0.000     0.000     0.000    1.98     0.00    0.00      0   -9.90   -9.00       20.6       11.8       11.8       11.8       11.8       11.8       11.7       11.7       11.7       11.7       11.7       11.7        0.0        0.0        0.0        0.0        0.0        0.0        0.0        0.0        0.0        0.0        0.0        0.0      8.9       0.2      25.2      27.6      29.9    422.57
    16     9  2024    78     4     281.8     7.4      0.0    0.0    7.4    0.0      3.8      0.0   -9.90      0.0      0.0    100      0.2      0.2   100      0.2     0.2     100     19.5    2.00     -9      0     -9      0      0    93.9    93.9      0     0.95      0.2      0.2      0.2   100    35.0    16.155    25.2    4.070    4.523     100       21.24    0.000    0.000     281.8    281.8    2.00   246.1     844.2     233.0     174.1      85.8      85.8      49.3    0.000     0.000     0.000     0.000     0.000    2.00     0.00    0.00      0   -9.90   -9.00       20.0       12.4       12.5       12.2       12.0       11.9       11.9       11.8       11.8       11.8       11.8       11.8        0.0        0.0        0.0        0.0        0.0        0.0        0.0        0.0        0.0        0.0        0.0        0.0      7.4       0.2      25.6      27.5      29.4    422.57
    17     9  2024    79     4     299.4    27.8      0.0    0.0   24.0    3.8      6.2      0.0   -9.90      0.0      0.0    100      0.1      0.1   100      0.1     0.1     100     17.8    2.01     -9      0     -9      0      0    93.0    93.0      0     0.93      0.1      0.1      0.1   100    35.0    16.481    26.7    4.403    4.892     100       22.81    0.000    0.000     299.4    299.4    2.01   265.7     852.0     235.2     175.3      86.4      86.4      49.8    0.000     0.000     0.000     0.000     0.000    2.01     0.00    0.00      0   -9.90   -9.00       36.7       12.4       12.5       12.2       12.1       12.0       11.9       11.9       11.9       11.8       11.8       11.8        0.0        0.0        0.0        0.0        0.0        0.0        0.0        0.0        0.0        0.0        0.0        0.0     27.8       0.1      24.8      25.8      26.9    422.57
    18     9  2024    80     4     311.2    32.5      0.0    0.0   27.1    5.4     15.1      0.0   -9.90      0.0      0.0    100      0.2      0.2   100      0.2     0.2     100     19.5    2.03     -9      0     -9      0      0    92.0    92.0      0     0.91      0.2      0.2      0.2   100    35.0    16.801    28.2    4.744    5.271     100       24.26    0.000    0.000     311.2    311.2    2.03   279.3     859.7     237.3     177.7      87.7      87.7      50.2    0.000     0.000     0.000     0.000     0.000    2.03     0.00    0.00      0   -9.90   -9.00       39.4       12.9       13.9       13.1       12.7       12.5       12.3       12.2       12.1       12.0       12.0       11.9        0.0        0.0        0.0        0.0        0.0        0.0        0.0        0.0        0.0        0.0        0.0        0.0     32.5       0.3      25.0      28.1      31.2    422.57
    19     9  2024    81     4     291.6     3.4      0.0    0.0    3.4    0.0     22.9      0.0   -9.90      0.0      0.0    100      0.2      0.2   100      0.2     0.2     100     19.6    2.05     -9      0     -9      0      0    90.9    90.9      0     0.89      0.2      0.2      0.2   100    35.0    17.113    29.8    5.092    5.658     100       25.74    0.000    0.000     291.6    291.6    2.05   261.5     867.4     239.4     179.2      88.4      88.4      50.7    0.000     0.000     0.000     0.000     0.000    2.05     0.00    0.00      0   -9.90   -9.00       15.4       12.8       14.2       13.4       13.0       12.7       12.5       12.4       12.3       12.2       12.1       12.0        0.0        0.0        0.0        0.0        0.0        0.0        0.0        0.0        0.0        0.0        0.0        0.0      3.4       0.2      25.3      28.2      31.1    422.57
    20     9  2024    82     4     277.3     1.0      0.0    0.0    1.0    0.0     15.0      0.0   -9.90      0.0      0.0    100      0.2      0.2   100      0.2     0.2     100     19.5    2.07     -9      0     -9      0      0    89.6    89.6      0     0.87      0.2      0.2      0.2   100    35.0    17.418    31.3    5.448    6.053     100       27.21    0.000    0.000     277.3    277.3    2.07   249.8     875.1     241.5     180.9      89.3      89.3      51.1    0.000     0.000     0.000     0.000     0.000    2.07     0.00    0.00      0   -9.90   -9.00       12.6       12.1       12.3       12.2       12.2       12.1       12.1       12.0       12.0       12.0       11.9       11.9        0.0        0.0        0.0        0.0        0.0        0.0        0.0        0.0        0.0        0.0        0.0        0.0      1.0       0.3      24.9      28.0      31.2    422.57
    21     9  2024    83     4     272.4     1.4      0.0    0.0    1.4    0.0      6.1      0.0   -9.90      0.0      0.0    100      0.2      0.2   100      0.2     0.2     100     19.7    2.09     -9      0     -9      0      0    88.2    88.2      0     0.84      0.2      0.2      0.2   100    35.0    17.714    32.8    5.810    6.455     100       28.67    0.000    0.000     272.4    272.4    2.09   247.3     882.8     243.7     182.6      90.1      90.1      51.6    0.000     0.000     0.000     0.000     0.000    2.09     0.00    0.00      0   -9.90   -9.00       13.0       11.8       11.9       11.8       11.8       11.8       11.8       11.8       11.8       11.8       11.8       11.8        0.0        0.0        0.0        0.0        0.0        0.0        0.0        0.0        0.0        0.0        0.0        0.0      1.4       0.3      25.3      28.5      31.7    422.57
    22     9  2024    84     4     286.2    17.6      0.0    0.0   16.4    1.2      2.3      0.0   -9.90      0.0      0.0    100      0.2      0.2   100      0.2     0.2     100     19.7    2.10     -9      0     -9      0      0    86.6    86.6      0     0.82      0.2      0.2      0.2   100    35.0    18.001    34.3    6.177    6.864     100       30.19    0.000    0.000     286.2    286.2    2.10   263.3     890.4     245.8     183.8      90.6      90.6      52.0    0.000     0.000     0.000     0.000     0.000    2.10     0.00    0.00      0   -9.90   -9.00       28.3       11.8       11.8       11.8       11.8       11.8       11.8       11.7       11.7       11.7       11.7       11.7        0.0        0.0        0.0        0.0        0.0        0.0        0.0        0.0        0.0        0.0        0.0        0.0     17.6       0.2      25.5      27.7      30.0    422.57
    23     9  2024    85     4     288.8    10.2      0.0    0.0   10.0    0.2      7.2      0.0   -9.90      0.0      0.0    100      0.2      0.2   100      0.2     0.2     100     19.8    2.12     -9      0     -9      0      0    84.8    84.8      0     0.79      0.2      0.2      0.2   100    35.0    18.277    35.8    6.550    7.278     100       31.68    0.000    0.000     288.8    288.8    2.12   267.9     898.0     247.9     185.6      91.6      91.6      52.5    0.000     0.000     0.000     0.000     0.000    2.12     0.00    0.00      0   -9.90   -9.00       22.8       12.7       13.2       12.6       12.3       12.1       12.0       11.9       11.9       11.9       11.8       11.8        0.0        0.0        0.0        0.0        0.0        0.0        0.0        0.0        0.0        0.0        0.0        0.0     10.2       0.2      25.5      28.4      31.3    422.57
    24     9  2024    86     4     282.9     4.6      0.0    0.0    4.6    0.0     10.3      0.0   -9.90      0.0      0.0    100      0.2      0.2   100      0.2     0.2     100     19.3    2.14     -9      0     -9      0      0    82.8    82.8      0     0.76      0.2      0.2      0.2   100    35.0    18.542    37.4    6.927    7.697     100       33.15    0.000    0.000     282.9    282.9    2.14   264.1     905.6     250.0     187.2      92.4      92.4      52.9    0.000     0.000     0.000     0.000     0.000    2.14     0.00    0.00      0   -9.90   -9.00       16.8       12.6       12.8       12.5       12.3       12.2       12.1       12.0       11.9       11.9       11.9       11.9        0.0        0.0        0.0        0.0        0.0        0.0        0.0        0.0        0.0        0.0        0.0        0.0      4.6       0.3      24.6      27.7      30.8    422.57
    25     9  2024    87     4     298.6    27.6      0.0    0.0   23.8    3.7      8.0      0.0   -9.90      0.0      0.0    100      0.2      0.2   100      0.2     0.2     100     19.3    2.16     -9      0     -9      0      0    80.5    80.5      0     0.72      0.2      0.2      0.2   100    35.0    18.795    38.9    7.307    8.119     100       34.63    0.000    0.000     298.6    298.6    2.16   281.9     913.2     252.1     188.7      93.1      93.1      53.4    0.000     0.000     0.000     0.000     0.000    2.16     0.00    0.00      0   -9.90   -9.00       36.4       12.2       12.3       12.1       12.0       12.0       11.9       11.9       11.9       11.9       11.8       11.8        0.0        0.0        0.0        0.0        0.0        0.0        0.0        0.0        0.0        0.0        0.0        0.0     27.6       0.2      24.6      27.5      30.4    422.57
[...]
    10    12  2025    -9     0     261.7     0.0      0.0    0.0    0.0    0.0      0.0      0.0   -9.90      0.4      0.1     36      0.0      0.0   100      0.4     0.1      36     17.7    2.28     -9     -9     -9      0     -9     0.0     0.0      0    -9.00      0.0      0.0      0.0   100    35.1    20.220    48.0    9.706   10.784     100       41.78    0.000    0.000     261.7    261.7    2.28   259.6     965.7     266.5     199.9      98.9      98.7      56.5    0.000     0.000     0.000     0.000     0.000    2.28     0.00    0.00      0   -9.90   -9.00        4.7       11.7       11.7       11.7       11.7       11.7       11.7       11.7       11.7       11.7       11.7       11.7        0.0        0.0        0.0        0.0        0.0        0.0        0.0        0.0        0.0        0.0        0.0        0.0      0.0       0.3      21.3      26.6      32.0    424.57
    11    12  2025    -9     0     261.5     0.0      0.0    0.0    0.0    0.0      0.0      0.0   -9.90      0.4      0.1     34      0.0      0.0   100      0.4     0.1      34     17.0    2.28     -9     -9     -9      0     -9     0.0     0.0      0    -9.00      0.0      0.0      0.0   100    35.1    20.220    48.0    9.706   10.784     100       41.78    0.000    0.000     261.5    261.5    2.28   259.5     965.7     266.5     199.9      98.9      98.7      56.5    0.000     0.000     0.000     0.000     0.000    2.28     0.00    0.00      0   -9.90   -9.00        4.5       11.7       11.7       11.7       11.7       11.7       11.7       11.7       11.7       11.7       11.7       11.7        0.0        0.0        0.0        0.0        0.0        0.0        0.0        0.0        0.0        0.0        0.0        0.0      0.0       0.3      20.1      25.8      31.6    424.57
    12    12  2025    -9     0     261.4     0.0      0.0    0.0    0.0    0.0      0.0      0.0   -9.90      0.4      0.1     33      0.0      0.0   100      0.4     0.1      33     16.3    2.28     -9     -9     -9      0     -9     0.0     0.0      0    -9.00      0.0      0.0      0.0   100    35.1    20.220    48.0    9.706   10.784     100       41.78    0.000    0.000     261.4    261.4    2.28   259.4     965.7     266.5     199.9      99.0      98.7      56.5    0.000     0.000     0.000     0.000     0.000    2.28     0.00    0.00      0   -9.90   -9.00        4.4       11.7       11.7       11.7       11.7       11.7       11.7       11.7       11.7       11.7       11.7       11.7        0.0        0.0        0.0        0.0        0.0        0.0        0.0        0.0        0.0        0.0        0.0        0.0      0.0       0.3      18.7      25.2      31.7    424.57
    13    12  2025    -9     0     261.3     0.0      0.0    0.0    0.0    0.0      0.0      0.0   -9.90      0.3      0.1     32      0.0      0.0   100      0.3     0.1      32     16.1    2.28     -9     -9     -9      0     -9     0.0     0.0      0    -9.00      0.0      0.0      0.0   100    35.1    20.220    48.0    9.706   10.784     100       41.78    0.000    0.000     261.3    261.3    2.28   259.3     965.7     266.5     199.9      98.8      98.7      56.5    0.000     0.000     0.000     0.000     0.000    2.28     0.00    0.00      0   -9.90   -9.00        4.3       11.7       11.7       11.7       11.7       11.7       11.7       11.7       11.7       11.7       11.7       11.7        0.0        0.0        0.0        0.0        0.0        0.0        0.0        0.0        0.0        0.0        0.0        0.0      0.0       0.3      18.8      24.1      29.4    424.57
    14    12  2025    -9     0     261.2     0.0      0.0    0.0    0.0    0.0      0.0      0.0   -9.90      0.3      0.1     30      0.0      0.0   100      0.3     0.1      30     13.8    2.28     -9     -9     -9      0     -9     0.0     0.0      0    -9.00      0.0      0.0      0.0   100    35.1    20.220    48.0    9.706   10.784     100       41.78    0.000    0.000     261.2    261.2    2.28   259.2     965.7     266.5     199.9      98.6      98.7      56.5    0.000     0.000     0.000     0.000     0.000    2.28     0.00    0.00      0   -9.90   -9.00        4.2       11.7       11.7       11.7       11.7       11.7       11.7       11.7       11.7       11.7       11.7       11.7        0.0        0.0        0.0        0.0        0.0        0.0        0.0        0.0        0.0        0.0        0.0        0.0      0.0       0.3      16.9      21.8      26.8    424.57
    15    12  2025    -9     0     261.1     0.0      0.0    0.0    0.0    0.0      0.0      0.0   -9.90      0.4      0.1     29      0.0      0.0   100      0.4     0.1      29     14.0    2.28     -9     -9     -9      0     -9     0.0     0.0      0    -9.00      0.0      0.0      0.0   100    35.1    20.220    48.0    9.706   10.784     100       41.78    0.000    0.000     261.1    261.1    2.28   259.1     965.7     266.5     199.9      98.8      98.7      56.5    0.000     0.000     0.000     0.000     0.000    2.28     0.00    0.00      0   -9.90   -9.00        4.1       11.7       11.7       11.7       11.7       11.7       11.7       11.7       11.7       11.7       11.7       11.7        0.0        0.0        0.0        0.0        0.0        0.0        0.0        0.0        0.0        0.0        0.0        0.0      0.0       0.3      15.7      22.0      28.4    424.57
    16    12  2025    -9     0     261.0     0.0      0.0    0.0    0.0    0.0      0.0      0.0   -9.90      0.4      0.1     28      0.0      0.0   100      0.4     0.1      28     16.0    2.28     -9     -9     -9      0     -9     0.0     0.0      0    -9.00      0.0      0.0      0.0   100    35.1    20.220    48.0    9.706   10.784     100       41.78    0.000    0.000     261.0    261.0    2.28   259.0     965.7     266.5     199.9      98.8      98.7      56.5    0.000     0.000     0.000     0.000     0.000    2.28     0.00    0.00      0   -9.90   -9.00        4.0       11.7       11.7       11.7       11.7       11.7       11.7       11.7       11.7       11.7       11.7       11.7        0.0        0.0        0.0        0.0        0.0        0.0        0.0        0.0        0.0        0.0        0.0        0.0      0.0       0.3      18.2      24.0      29.7    424.57
    17    12  2025    -9     0     260.9     0.0      0.0    0.0    0.0    0.0      0.0      0.0   -9.90      0.3      0.1     27      0.0      0.0   100      0.3     0.1      27     16.0    2.28     -9     -9     -9      0     -9     0.0     0.0      0    -9.00      0.0      0.0      0.0   100    35.1    20.220    48.0    9.706   10.784     100       41.78    0.000    0.000     260.9    260.9    2.28   258.9     965.7     266.5     199.9      98.7      98.7      56.5    0.000     0.000     0.000     0.000     0.000    2.28     0.00    0.00      0   -9.90   -9.00        3.9       11.7       11.7       11.7       11.7       11.7       11.7       11.7       11.7       11.7       11.7       11.7        0.0        0.0        0.0        0.0        0.0        0.0        0.0        0.0        0.0        0.0        0.0        0.0      0.0       0.3      19.4      24.0      28.7    424.57
    18    12  2025    -9     0     260.8     0.0      0.0    0.0    0.0    0.0      0.0      0.0   -9.90      0.3      0.1     26      0.0      0.0   100      0.3     0.1      26     15.0    2.28     -9     -9     -9      0     -9     0.0     0.0      0    -9.00      0.0      0.0      0.0   100    35.1    20.220    48.0    9.706   10.784     100       41.78    0.000    0.000     260.8    260.8    2.28   258.8     965.7     266.5     199.9      98.6      98.7      56.5    0.000     0.000     0.000     0.000     0.000    2.28     0.00    0.00      0   -9.90   -9.00        3.8       11.7       11.7       11.7       11.7       11.7       11.7       11.7       11.7       11.7       11.7       11.7        0.0        0.0        0.0        0.0        0.0        0.0        0.0        0.0        0.0        0.0        0.0        0.0      0.0       0.3      18.6      23.0      27.4    424.57
    19    12  2025    -9     0     260.8     0.0      0.0    0.0    0.0    0.0      0.0      0.0   -9.90      0.4      0.1     26      0.0      0.0   100      0.4     0.1      26     14.3    2.28     -9     -9     -9      0     -9     0.0     0.0      0    -9.00      0.0      0.0      0.0   100    35.1    20.220    48.0    9.706   10.784     100       41.78    0.000    0.000     260.8    260.8    2.28   258.7     965.7     266.5     199.9      98.8      98.7      56.5    0.000     0.000     0.000     0.000     0.000    2.28     0.00    0.00      0   -9.90   -9.00        3.7       11.7       11.7       11.7       11.7       11.7       11.7       11.7       11.7       11.7       11.7       11.7        0.0        0.0        0.0        0.0        0.0        0.0        0.0        0.0        0.0        0.0        0.0        0.0      0.0       0.3      16.0      22.3      28.6    424.57
    20    12  2025    -9     0     260.7     0.0      0.0    0.0    0.0    0.0      0.0      0.0   -9.90      0.4      0.1     25      0.0      0.0   100      0.4     0.1      25     15.7    2.28     -9     -9     -9      0     -9     0.0     0.0      0    -9.00      0.0      0.0      0.0   100    35.1    20.220    48.0    9.706   10.784     100       41.78    0.000    0.000     260.7    260.7    2.28   258.6     965.7     266.5     199.9      98.9      98.7      56.5    0.000     0.000     0.000     0.000     0.000    2.28     0.00    0.00      0   -9.90   -9.00        3.6       11.7       11.7       11.7       11.7       11.7       11.7       11.7       11.7       11.7       11.7       11.7        0.0        0.0        0.0        0.0        0.0        0.0        0.0        0.0        0.0        0.0        0.0        0.0      0.0       0.3      17.4      23.9      30.4    424.57
    21    12  2025    -9     0     260.6     0.0      0.0    0.0    0.0    0.0      0.0      0.0   -9.90      0.4      0.1     24      0.0      0.0   100      0.4     0.1      24     15.8    2.28     -9     -9     -9      0     -9     0.0     0.0      0    -9.00      0.0      0.0      0.0   100    35.1    20.220    48.0    9.706   10.784     100       41.78    0.000    0.000     260.6    260.6    2.28   258.5     965.7     266.5     199.9      99.0      98.7      56.5    0.000     0.000     0.000     0.000     0.000    2.28     0.00    0.00      0   -9.90   -9.00        3.5       11.7       11.7       11.7       11.7       11.7       11.7       11.7       11.7       11.7       11.7       11.7        0.0        0.0        0.0        0.0        0.0        0.0        0.0        0.0        0.0        0.0        0.0        0.0      0.0       0.3      17.7      24.4      31.1    424.57
    22    12  2025    -9     0     260.5     0.0      0.0    0.0    0.0    0.0      0.0      0.0   -9.90      0.4      0.1     23      0.0      0.0   100      0.4     0.1      23     16.0    2.28     -9     -9     -9      0     -9     0.0     0.0      0    -9.00      0.0      0.0      0.0   100    35.1    20.220    48.0    9.706   10.784     100       41.78    0.000    0.000     260.5    260.5    2.28   258.4     965.7     266.5     199.9      98.9      98.7      56.5    0.000     0.000     0.000     0.000     0.000    2.28     0.00    0.00      0   -9.90   -9.00        3.5       11.7       11.7       11.7       11.7       11.7       11.7       11.7       11.7       11.7       11.7       11.7        0.0        0.0        0.0        0.0        0.0        0.0        0.0        0.0        0.0        0.0        0.0        0.0      0.0       0.3      17.9      24.4      30.8    424.57
    23    12  2025    -9     0     260.4     0.0      0.0    0.0    0.0    0.0      0.0      0.0   -9.90      0.4      0.1     22      0.0      0.0   100      0.4     0.1      22     16.2    2.28     -9     -9     -9      0     -9     0.0     0.0      0    -9.00      0.0      0.0      0.0   100    35.1    20.220    48.0    9.706   10.784     100       41.78    0.000    0.000     260.4    260.4    2.28   258.4     965.7     266.5     199.9      98.9      98.7      56.5    0.000     0.000     0.000     0.000     0.000    2.28     0.00    0.00      0   -9.90   -9.00        3.4       11.7       11.7       11.7       11.7       11.7       11.7       11.7       11.7       11.7       11.7       11.7        0.0        0.0        0.0        0.0        0.0        0.0        0.0        0.0        0.0        0.0        0.0        0.0      0.0       0.3      18.4      24.5      30.5    424.57
    24    12  2025    -9     0     260.3     0.0      0.0    0.0    0.0    0.0      0.0      0.0   -9.90      0.3      0.1     22      0.0      0.0   100      0.3     0.1      22     16.6    2.28     -9     -9     -9      0     -9     0.0     0.0      0    -9.00      0.0      0.0      0.0   100    35.1    20.220    48.0    9.706   10.784     100       41.78    0.000    0.000     260.3    260.3    2.28   258.3     965.7     266.5     199.9      98.8      98.7      56.5    0.000     0.000     0.000     0.000     0.000    2.28     0.00    0.00      0   -9.90   -9.00        3.3       11.7       11.7       11.7       11.7       11.7       11.7       11.7       11.7       11.7       11.7       11.7        0.0        0.0        0.0        0.0        0.0        0.0        0.0        0.0        0.0        0.0        0.0        0.0      0.0       0.3      19.3      24.7      30.1    424.57
    25    12  2025    -9     0     260.3     0.0      0.0    0.0    0.0    0.0      0.0      0.0   -9.90      0.4      0.1     21      0.0      0.0   100      0.4     0.1      21     15.9    2.28     -9     -9     -9      0     -9     0.0     0.0      0    -9.00      0.0      0.0      0.0   100    35.1    20.220    48.0    9.706   10.784     100       41.78    0.000    0.000     260.3    260.3    2.28   258.2     965.7     266.5     199.9      98.8      98.7      56.5    0.000     0.000     0.000     0.000     0.000    2.28     0.00    0.00      0   -9.90   -9.00        3.2       11.7       11.7       11.7       11.7       11.7       11.7       11.7       11.7       11.7       11.7       11.7        0.0        0.0        0.0        0.0        0.0        0.0        0.0        0.0        0.0        0.0        0.0        0.0      0.0       0.3      18.2      23.9      29.6    424.57
    26    12  2025    -9     0     260.2     0.0      0.0    0.0    0.0    0.0      0.0      0.0   -9.90      0.4      0.1     21      0.0      0.0   100      0.4     0.1      21     15.9    2.28     -9     -9     -9      0     -9     0.0     0.0      0    -9.00      0.0      0.0      0.0   100    35.1    20.220    48.0    9.706   10.784     100       41.78    0.000    0.000     260.2    260.2    2.28   258.1     965.7     266.5     199.9      98.8      98.7      56.5    0.000     0.000     0.000     0.000     0.000    2.28     0.00    0.00      0   -9.90   -9.00        3.1       11.7       11.7       11.7       11.7       11.7       11.7       11.7       11.7       11.7       11.7       11.7        0.0        0.0        0.0        0.0        0.0        0.0        0.0        0.0        0.0        0.0        0.0        0.0      0.0       0.3      18.0      23.9      29.9    424.57
    27    12  2025    -9     0     260.1     0.0      0.0    0.0    0.0    0.0      0.0      0.0   -9.90      0.4      0.1     26      0.0      0.0   100      0.4     0.1      26     15.3    2.28     -9     -9     -9      0     -9     0.0     0.0      0    -9.00      0.0      0.0      0.0   100    35.1    20.220    48.0    9.706   10.784     100       41.78    0.000    0.000     260.1    260.1    2.28   258.1     965.7     266.5     199.9      99.0      98.7      56.5    0.000     0.000     0.000     0.000     0.000    2.28     0.00    0.00      0   -9.90   -9.00        3.1       11.7       11.7       11.7       11.7       11.7       11.7       11.7       11.7       11.7       11.7       11.7        0.0        0.0        0.0        0.0        0.0        0.0        0.0        0.0        0.0        0.0        0.0        0.0      0.0       0.3      16.5      23.5      30.5    424.57
    28    12  2025    -9     0     260.0     0.0      0.0    0.0    0.0    0.0      0.0      0.0   -9.90      0.4      0.1     19      0.0      0.0   100      0.4     0.1      19     15.5    2.28     -9     -9     -9      0     -9     0.0     0.0      0    -9.00      0.0      0.0      0.0   100    35.1    20.220    48.0    9.706   10.784     100       41.78    0.000    0.000     260.0    260.0    2.28   258.0     965.7     266.5     199.9      99.0      98.7      56.5    0.000     0.000     0.000     0.000     0.000    2.28     0.00    0.00      0   -9.90   -9.00        3.0       11.7       11.7       11.7       11.7       11.7       11.7       11.7       11.7       11.7       11.7       11.7        0.0        0.0        0.0        0.0        0.0        0.0        0.0        0.0        0.0        0.0        0.0        0.0      0.0       0.4      17.0      24.4      31.8    424.57
    29    12  2025    -9     0     260.0     0.0      0.0    0.0    0.0    0.0      0.0      0.0   -9.90      0.4      0.1     19      0.0      0.0   100      0.4     0.1      19     15.9    2.28     -9     -9     -9      0     -9     0.0     0.0      0    -9.00      0.0      0.0      0.0   100    35.1    20.220    48.0    9.706   10.784     100       41.78    0.000    0.000     260.0    260.0    2.28   257.9     965.7     266.5     199.9      99.1      98.7      56.5    0.000     0.000     0.000     0.000     0.000    2.28     0.00    0.00      0   -9.90   -9.00        2.9       11.7       11.7       11.7       11.7       11.7       11.7       11.7       11.7       11.7       11.7       11.7        0.0        0.0        0.0        0.0        0.0        0.0        0.0        0.0        0.0        0.0        0.0        0.0      0.0       0.4      17.9      25.6      33.3    424.57
    30    12  2025    -9     0     259.9     0.0      0.0    0.0    0.0    0.0      0.0      0.0   -9.90      0.4      0.1     18      0.0      0.0   100      0.4     0.1      18     16.8    2.28     -9     -9     -9      0     -9     0.0     0.0      0    -9.00      0.0      0.0      0.0   100    35.1    20.220    48.0    9.706   10.784     100       41.78    0.000    0.000     259.9    259.9    2.28   257.8     965.7     266.5     199.9      99.1      98.7      56.5    0.000     0.000     0.000     0.000     0.000    2.28     0.00    0.00      0   -9.90   -9.00        2.8       11.7       11.7       11.7       11.7       11.7       11.7       11.7       11.7       11.7       11.7       11.7        0.0        0.0        0.0        0.0        0.0        0.0        0.0        0.0        0.0        0.0        0.0        0.0      0.0       0.4      19.5      26.3      33.1    424.57
    31    12  2025    -9     0     259.8     0.0      0.0    0.0    0.0    0.0      0.0      0.0   -9.90      0.4      0.1     18      0.0      0.0   100      0.4     0.1      18     17.1    2.28     -9     -9     -9      0     -9     0.0     0.0      0    -9.00      0.0      0.0      0.0   100    35.1    20.220    48.0    9.706   10.784     100       41.78    0.000    0.000     259.8    259.8    2.28   257.8     965.7     266.5     199.9      99.1      98.7      56.5    0.000     0.000     0.000     0.000     0.000    2.28     0.00    0.00      0   -9.90   -9.00        2.8       11.7       11.7       11.7       11.7       11.7       11.7       11.7       11.7       11.7       11.7       11.7        0.0        0.0        0.0        0.0        0.0        0.0        0.0        0.0        0.0        0.0        0.0        0.0      0.0       0.4      20.3      27.1      33.9    424.57
