AquaCrop 7.1 (August 2023) - Output created on (date) : 16-01-2026   at (time) : 12:17:24

    RunNr     Day1   Month1    Year1     Rain      ETo       GD     CO2      Irri   Infilt   Runoff    Drain   Upflow        E     E/Ex       Tr      TrW   Tr/Trx    SaltIn   SaltOut    SaltUp  SaltProf     Cycle   SaltStr  FertStr  WeedStr  TempStr   ExpStr   StoStr  BioMass  Brelative   HI    Y(dry)  Y(fresh)    WPet      Bin     Bout     DayN   MonthN    YearN
                                           mm       mm  degC.day    ppm        mm       mm       mm       mm       mm       mm        %       mm       mm        %    ton/ha    ton/ha    ton/ha    ton/ha      days       %        %        %        %        %        %    ton/ha        %       %    ton/ha   ton/ha    kg/m3   ton/ha   ton/ha
   Tot(1)        1        7     2011   1008.7   2417.8   3134.4   391.85    596.6   1005.0      3.7      0.0      0.0    818.0       48    835.1    835.1      100     0.000     0.000     0.000     0.000       89        0       30        0        0        1        0    19.872       99     48.2    9.574   10.637     0.82    0.000    0.000       31       12     2011  cluster_318.PRM
   Tot(2)        1        7     2012   1100.2   2426.6   3119.6   394.06    564.4   1098.4      1.8      0.0      0.0    892.2       52    826.7    826.7      100     0.000     0.000     0.000     0.000       89        0       30        0        0        1        0    19.836       99     48.2    9.556   10.618     0.82    0.000    0.000       31       12     2012  cluster_318.PRM
   Tot(3)        1        7     2013   1144.7   2416.7   3125.0   396.74    555.4   1139.4      5.3      0.0      0.0    906.1       53    816.4    816.4      100     0.000     0.000     0.000     0.000       89        0       30        0        0        1        0    19.928      100     48.2    9.601   10.668     0.84    0.000    0.000       31       12     2013  cluster_318.PRM
   Tot(4)        1        7     2014   1068.1   2426.9   3126.9   398.81    573.0   1065.1      3.0      0.0      0.0    859.2       50    829.0    829.0      100     0.000     0.000     0.000     0.000       89        0       30        0        0        1        0    19.926       99     48.2    9.599   10.666     0.82    0.000    0.000       31       12     2014  cluster_318.PRM
   Tot(5)        1        7     2015   1118.3   2427.3   3123.6   401.01    528.0   1113.3      5.0      2.7      0.0    862.3       50    831.3    831.3      100     0.000     0.000     0.000     0.000       89        0       30        0        0        0        0    19.992      100     48.2    9.632   10.702     0.82    0.000    0.000       31       12     2015  cluster_318.PRM
