AquaCrop 7.1 (August 2023) - Output created on (date) : 16-01-2026   at (time) : 12:17:24

   Run:   1
   Day Month  Year   DAP Stage   WC(2.30)   Rain     Irri   Surf   Infilt   RO    Drain       CR    Zgwt       Ex       E     E/Ex     Trx       Tr  Tr/Trx    ETx      ET  ET/ETx      GD       Z     StExp  StSto  StSen StSalt StWeed   CC      CCw     StTr  Kc(Tr)     Trx       Tr      TrW  Tr/Trx   WP    Biomass     HI    Y(dry)  Y(fresh)  Brelative    WPet      Bin     Bout  WC(2.30) Wr(2.30)     Z       Wr    Wr(SAT)    Wr(FC)   Wr(exp)   Wr(sto)   Wr(sen)   Wr(PWP)    SaltIn    SaltOut   SaltUp   Salt(2.30)  SaltZ     Z       ECe    ECsw   StSalt  Zgwt    ECgw       WC01       WC 2       WC 3       WC 4       WC 5       WC 6       WC 7       WC 8       WC 9       WC10       WC11       WC12      ECe01      ECe 2      ECe 3      ECe 4      ECe 5      ECe 6      ECe 7      ECe 8      ECe 9      ECe10      ECe11      ECe12     Rain       ETo      Tmin      Tavg      Tmax      CO2
                                      mm      mm       mm     mm     mm     mm       mm       mm      m        mm       mm     %        mm       mm    %        mm      mm       %  degC-day     m       %      %      %      %      %      %       %       %       -        mm       mm       mm    %     g/m2    ton/ha      %    ton/ha   ton/ha       %       kg/m3   ton/ha   ton/ha      mm       mm       m       mm        mm        mm        mm        mm        mm         mm    ton/ha    ton/ha    ton/ha    ton/ha    ton/ha     m      dS/m    dS/m      %     m      dS/m       0.05       0.18       0.33       0.48       0.63       0.80       1.00       1.20       1.43       1.68       1.93       2.18       0.05       0.18       0.33       0.48       0.63       0.80       1.00       1.20       1.43       1.68       1.93       2.18       mm        mm     degC      degC      degC       ppm
     1     7  2011     1     1     267.1     8.3      0.0    0.0    8.3    0.1      0.0      0.0   -9.90     14.8      9.7     66      0.0      0.0   100     14.8     9.7      66     17.5    0.30     -9     -9     -9      0     -9     0.0     0.0      0    -9.00      0.0      0.0      0.0   100     0.0     0.000    -9.9    0.000    0.000      -9        0.00    0.000    0.000     267.1    267.1    0.30    33.1     125.1      34.6      30.7      20.9      15.5       6.9    0.000     0.000     0.000     0.000     0.000    0.30     0.00    0.00      0   -9.90   -9.00       10.2       11.7       11.7       11.7       11.7       11.7       11.7       11.7       11.7       11.7       11.7       11.7        0.0        0.0        0.0        0.0        0.0        0.0        0.0        0.0        0.0        0.0        0.0        0.0      8.3      13.4      21.0      26.9      32.8    391.85
     2     7  2011     2     1     261.5     1.8      0.0    0.0    1.8    0.0      0.0      0.0   -9.90     15.6      7.5     48      0.0      0.0   100     15.6     7.5      48     17.0    0.30     -9     -9     -9      0     -9     0.0     0.0      0    -9.00      0.0      0.0      0.0   100     0.0     0.000    -9.9    0.000    0.000      -9        0.00    0.000    0.000     261.5    261.5    0.30    27.5     125.1      34.6      30.7      21.4      15.5       6.9    0.000     0.000     0.000     0.000     0.000    0.30     0.00    0.00      0   -9.90   -9.00        4.4       11.7       11.7       11.7       11.7       11.7       11.7       11.7       11.7       11.7       11.7       11.7        0.0        0.0        0.0        0.0        0.0        0.0        0.0        0.0        0.0        0.0        0.0        0.0      1.8      14.2      20.0      26.7      33.3    391.85
     3     7  2011     3     1     258.7     0.2      0.0    0.0    0.2    0.0      0.0      0.0   -9.90     15.0      3.0     20      0.0      0.0   100     15.0     3.0      20     16.9    0.30     -9     -9     -9      0     -9     0.0     0.0      0    -9.00      0.0      0.0      0.0   100     0.0     0.000    -9.9    0.000    0.000      -9        0.00    0.000    0.000     258.7    258.7    0.30    24.7     125.1      34.6      30.7      21.0      15.5       6.9    0.000     0.000     0.000     0.000     0.000    0.30     0.00    0.00      0   -9.90   -9.00        1.6       11.7       11.7       11.7       11.7       11.7       11.7       11.7       11.7       11.7       11.7       11.7        0.0        0.0        0.0        0.0        0.0        0.0        0.0        0.0        0.0        0.0        0.0        0.0      0.2      13.7      19.8      26.1      32.5    391.85
     4     7  2011     4     1     258.0     4.7      0.0    0.0    4.7    0.0      0.0      0.0   -9.90     16.0      5.4     34      0.0      0.0   100     16.0     5.4      34     17.7    0.30     -9     -9     -9      0     -9     0.0     0.0      0    -9.00      0.0      0.0      0.0   100     0.0     0.000    -9.9    0.000    0.000      -9        0.00    0.000    0.000     258.0    258.0    0.30    24.0     125.1      34.6      30.7      21.6      15.5       6.9    0.000     0.000     0.000     0.000     0.000    0.30     0.00    0.00      0   -9.90   -9.00        1.2       11.6       11.7       11.7       11.7       11.7       11.7       11.7       11.7       11.7       11.7       11.7        0.0        0.0        0.0        0.0        0.0        0.0        0.0        0.0        0.0        0.0        0.0        0.0      4.7      14.5      21.4      28.0      34.5    391.85
     5     7  2011     5     1     256.8     2.4      0.0    0.0    2.4    0.0      0.0      0.0   -9.90     17.4      3.7     21      0.0      0.0   100     17.4     3.7      21     16.6    0.32     -9     -9     -9      0     -9     0.0     0.0      0    -9.00      0.0      0.0      0.0   100     0.0     0.000    -9.9    0.000    0.000      -9        0.00    0.000    0.000     256.8    256.8    0.32    25.1     133.5      36.9      32.8      23.9      16.5       7.4    0.000     0.000     0.000     0.000     0.000    0.32     0.00    0.00      0   -9.90   -9.00        1.2       10.7       11.7       11.7       11.7       11.7       11.7       11.7       11.7       11.7       11.7       11.7        0.0        0.0        0.0        0.0        0.0        0.0        0.0        0.0        0.0        0.0        0.0        0.0      2.4      15.8      19.2      27.3      35.4    391.85
     6     7  2011     6     1     255.6     0.7      0.0    0.0    0.7    0.0      0.0      0.0   -9.90     16.6      1.8     11      0.0      0.0   100     16.6     1.8      11     16.2    0.36     -9     -9     -9      0     -9     0.0     0.0      0    -9.00      0.0      0.0      0.0   100     0.0     0.000    -9.9    0.000    0.000      -9        0.00    0.000    0.000     255.6    255.6    0.36    28.6     150.6      41.6      37.0      26.5      18.7       8.4    0.000     0.000     0.000     0.000     0.000    0.36     0.00    0.00      0   -9.90   -9.00        1.2        9.9       11.7       11.7       11.7       11.7       11.7       11.7       11.7       11.7       11.7       11.7        0.0        0.0        0.0        0.0        0.0        0.0        0.0        0.0        0.0        0.0        0.0        0.0      0.7      15.1      18.4      26.1      33.9    391.85
     7     7  2011     7     2     259.8     9.2      2.2    0.0    9.2    0.0      0.0      0.0   -9.90     15.4      7.0     46      0.1      0.1   100     15.5     7.2      46     16.8    0.40     -9      0      0      0      0     0.4     0.4      0     0.01      0.1      0.1      0.1   100    34.3     0.003    -9.9    0.000    0.000     100        0.00    0.000    0.000     259.8    259.8    0.40    37.3     166.4      46.0      46.0      28.4      28.4       9.3    0.000     0.000     0.000     0.000     0.000    0.40     0.00    0.00      0   -9.90   -9.00        9.4        9.4        9.5       11.7       11.7       11.7       11.7       11.7       11.7       11.7       11.7       11.7        0.0        0.0        0.0        0.0        0.0        0.0        0.0        0.0        0.0        0.0        0.0        0.0      9.2      14.1      19.7      26.3      33.0    391.85
     8     7  2011     8     2     259.9     6.8      3.2    0.0    6.8    0.0      0.0      0.0   -9.90     17.4      9.7     56      0.1      0.1   100     17.6     9.9      56     16.5    0.43     -9      0      0      0      0     0.5     0.5      0     0.01      0.1      0.1      0.1   100    34.3     0.006    -9.9    0.000    0.000     100        0.00    0.000    0.000     259.9    259.9    0.43    41.9     181.2      50.1      50.1      32.7      32.7      10.2    0.000     0.000     0.000     0.000     0.000    0.43     0.00    0.00      0   -9.90   -9.00        9.7        9.7        9.7       11.3       11.7       11.7       11.7       11.7       11.7       11.7       11.7       11.7        0.0        0.0        0.0        0.0        0.0        0.0        0.0        0.0        0.0        0.0        0.0        0.0      6.8      16.0      19.0      27.2      35.5    391.85
     9     7  2011     9     2     264.7    16.0      0.0    0.0   15.7    0.3      0.0      0.0   -9.90     16.5     10.8     65      0.2      0.2   100     16.7    11.0      66     16.9    0.47      0      0      0      0      0     0.6     0.6      0     0.01      0.2      0.2      0.2   100    34.3     0.010    -9.9    0.000    0.000     100        0.00    0.000    0.000     264.7    264.7    0.47    50.5     195.4      54.0      54.0      34.5      34.5      11.0    0.000     0.000     0.000     0.000     0.000    0.47     0.00    0.00      0   -9.90   -9.00       14.5        9.7        9.7       11.3       11.7       11.7       11.7       11.7       11.7       11.7       11.7       11.7        0.0        0.0        0.0        0.0        0.0        0.0        0.0        0.0        0.0        0.0        0.0        0.0     16.0      15.2      19.8      27.2      34.6    391.85
    10     7  2011    10     2     258.1     0.8      0.0    0.0    0.8    0.0      0.0      0.0   -9.90     16.6      7.1     43      0.2      0.2   100     16.8     7.3      44     17.7    0.50      0      0      0      0      0     0.7     0.7      0     0.01      0.2      0.2      0.2   100    34.3     0.014    -9.9    0.000    0.000     100        0.00    0.000    0.000     258.1    258.1    0.50    47.5     209.1      57.8      57.8      37.0      37.0      11.9    0.000     0.000     0.000     0.000     0.000    0.50     0.00    0.00      0   -9.90   -9.00        5.2       11.4        9.7       11.3       11.7       11.7       11.7       11.7       11.7       11.7       11.7       11.7        0.0        0.0        0.0        0.0        0.0        0.0        0.0        0.0        0.0        0.0        0.0        0.0      0.8      15.2      21.4      28.5      35.5    391.85
    11     7  2011    11     2     257.9     4.1      3.1    0.0    4.1    0.0      0.0      0.0   -9.90     17.5      7.1     40      0.2      0.2   100     17.7     7.3      41     15.8    0.53      7      0      0      0      0     0.8     0.8      0     0.01      0.2      0.2      0.2   100    34.3     0.019    -9.9    0.000    0.000     100        0.00    0.000    0.000     257.9    257.9    0.53    51.1     222.3      61.4      61.4      40.3      40.3      12.6    0.000     0.000     0.000     0.000     0.000    0.53     0.00    0.00      0   -9.90   -9.00        9.7        9.7        9.7        9.9       11.7       11.7       11.7       11.7       11.7       11.7       11.7       11.7        0.0        0.0        0.0        0.0        0.0        0.0        0.0        0.0        0.0        0.0        0.0        0.0      4.1      16.1      17.6      26.4      35.1    391.85
    12     7  2011    12     2     256.5     4.5      3.4    0.0    4.5    0.0      0.0      0.0   -9.90     15.8      9.0     57      0.3      0.3   100     16.1     9.3      58     16.6    0.56      0      0      0      0      0     1.0     1.0      0     0.02      0.3      0.3      0.3   100    34.3     0.025    -9.9    0.000    0.000      99        0.00    0.000    0.000     256.5    256.5    0.56    53.1     235.2      65.0      65.0      40.9      40.9      13.4    0.000     0.000     0.000     0.000     0.000    0.56     0.00    0.00      0   -9.90   -9.00        9.5        9.5        9.6        9.6       11.6       11.7       11.7       11.7       11.7       11.7       11.7       11.7        0.0        0.0        0.0        0.0        0.0        0.0        0.0        0.0        0.0        0.0        0.0        0.0      4.5      14.6      19.2      26.4      33.6    391.85
    13     7  2011    13     2     256.1     4.2      4.7    0.0    4.2    0.0      0.0      0.0   -9.90     16.4      9.0     55      0.3      0.3   100     16.7     9.3      56     17.2    0.59      0      0      0      0      0     1.2     1.2      0     0.02      0.3      0.3      0.3   100    34.3     0.032    -9.9    0.000    0.000      99        0.00    0.000    0.000     256.1    256.1    0.59    56.7     247.7      68.4      68.4      43.8      43.8      14.1    0.000     0.000     0.000     0.000     0.000    0.59     0.00    0.00      0   -9.90   -9.00        9.6        9.6        9.6        9.6       11.1       11.7       11.7       11.7       11.7       11.7       11.7       11.7        0.0        0.0        0.0        0.0        0.0        0.0        0.0        0.0        0.0        0.0        0.0        0.0      4.2      15.2      20.4      27.7      35.0    391.85
    14     7  2011    14     2     254.5     8.2      0.2    0.0    8.2    0.0      0.0      0.0   -9.90     15.4      9.6     62      0.3      0.3   100     15.7     9.9      63     17.0    0.62      0      0      0      0      0     1.4     1.4      0     0.02      0.3      0.3      0.3   100    34.3     0.041    -9.9    0.000    0.000      99        0.00    0.000    0.000     254.5    254.5    0.62    58.8     259.9      71.8      71.8      44.7      44.7      14.8    0.000     0.000     0.000     0.000     0.000    0.62     0.00    0.00      0   -9.90   -9.00        9.5        9.5        9.5        9.5       10.4       11.7       11.7       11.7       11.7       11.7       11.7       11.7        0.0        0.0        0.0        0.0        0.0        0.0        0.0        0.0        0.0        0.0        0.0        0.0      8.2      14.3      20.0      26.7      33.5    391.85
    15     7  2011    15     2     254.7     4.1      5.5    0.0    4.1    0.0      0.0      0.0   -9.90     16.8      8.9     53      0.5      0.5   100     17.2     9.4      54     16.4    0.65      0      0      0      0      0     1.6     1.6      0     0.03      0.5      0.5      0.5   100    34.3     0.050    -9.9    0.000    0.000      99        0.00    0.000    0.000     254.7    254.7    0.65    62.1     271.9      75.1      75.1      48.7      48.7      15.6    0.000     0.000     0.000     0.000     0.000    0.65     0.00    0.00      0   -9.90   -9.00        9.6        9.6        9.7        9.7        9.9       11.7       11.7       11.7       11.7       11.7       11.7       11.7        0.0        0.0        0.0        0.0        0.0        0.0        0.0        0.0        0.0        0.0        0.0        0.0      4.1      15.7      18.8      26.9      34.9    391.85
    16     7  2011    16     2     254.0     4.1      4.7    0.0    4.1    0.0      0.0      0.0   -9.90     16.1      9.0     56      0.5      0.5   100     16.6     9.5      57     17.6    0.67      0      0      0      0      0     1.9     1.9      0     0.03      0.5      0.5      0.5   100    34.3     0.062    -9.9    0.000    0.000      99        0.00    0.000    0.000     254.0    254.0    0.67    64.3     283.6      78.3      78.3      50.1      50.1      16.2    0.000     0.000     0.000     0.000     0.000    0.67     0.00    0.00      0   -9.90   -9.00        9.6        9.6        9.6        9.6        9.7       11.7       11.7       11.7       11.7       11.7       11.7       11.7        0.0        0.0        0.0        0.0        0.0        0.0        0.0        0.0        0.0        0.0        0.0        0.0      4.1      15.1      21.1      28.2      35.3    391.85
    17     7  2011    17     2     252.9     8.4      0.3    0.0    8.4    0.0      0.0      0.0   -9.90     14.7      9.3     63      0.6      0.6   100     15.2     9.8      65     18.3    0.70      0      0      0      0      0     2.2     2.2      0     0.04      0.6      0.6      0.6   100    34.3     0.076    -9.9    0.000    0.000      99        0.00    0.000    0.000     252.9    252.9    0.70    65.9     295.2      81.5      81.5      50.2      50.2      16.9    0.000     0.000     0.000     0.000     0.000    0.70     0.00    0.00      0   -9.90   -9.00        9.4        9.4        9.5        9.5        9.5       11.7       11.7       11.7       11.7       11.7       11.7       11.7        0.0        0.0        0.0        0.0        0.0        0.0        0.0        0.0        0.0        0.0        0.0        0.0      8.4      13.9      22.6      28.4      34.3    391.85
    18     7  2011    18     2     254.4     7.1      4.9    0.0    7.1    0.0      0.0      0.0   -9.90     17.5      9.7     55      0.8      0.8   100     18.2    10.5      57     16.5    0.73      0      0      0      0      0     2.6     2.6      0     0.05      0.8      0.8      0.8   100    34.3     0.092    -9.9    0.000    0.000      99        0.00    0.000    0.000     254.4    254.4    0.73    71.0     306.5      84.6      84.6      56.4      56.4      17.6    0.000     0.000     0.000     0.000     0.000    0.73     0.00    0.00      0   -9.90   -9.00        9.7        9.7        9.8        9.8        9.8       11.4       11.7       11.7       11.7       11.7       11.7       11.7        0.0        0.0        0.0        0.0        0.0        0.0        0.0        0.0        0.0        0.0        0.0        0.0      7.1      16.6      19.1      27.8      36.4    391.85
    19     7  2011    19     2     251.9     7.1      0.0    0.0    7.1    0.0      0.0      0.0   -9.90     13.3      8.9     67      0.7      0.7   100     14.0     9.6      69     17.7    0.75      0      0      0      0      0     3.1     3.1      0     0.06      0.7      0.7      0.7   100    34.3     0.111    -9.9    0.000    0.000      99        0.00    0.000    0.000     251.9    251.9    0.75    71.4     317.7      87.7      87.7      52.3      52.3      18.3    0.000     0.000     0.000     0.000     0.000    0.75     0.00    0.00      0   -9.90   -9.00        7.1        9.7        9.8        9.8        9.8       11.4       11.7       11.7       11.7       11.7       11.7       11.7        0.0        0.0        0.0        0.0        0.0        0.0        0.0        0.0        0.0        0.0        0.0        0.0      7.1      12.8      21.4      26.8      32.2    391.85
    20     7  2011    20     2     252.2     5.0      4.6    0.0    5.0    0.0      0.0      0.0   -9.90     16.0      8.3     52      1.0      1.0   100     17.0     9.3      55     17.2    0.78      0      0      0      0      0     3.7     3.7      0     0.06      1.0      1.0      1.0   100    34.3     0.133    -9.9    0.000    0.000      99        0.00    0.000    0.000     252.2    252.2    0.78    75.5     328.7      90.8      90.8      58.6      58.6      18.9    0.000     0.000     0.000     0.000     0.000    0.78     0.00    0.00      0   -9.90   -9.00        9.6        9.6        9.6        9.6        9.6       10.7       11.7       11.7       11.7       11.7       11.7       11.7        0.0        0.0        0.0        0.0        0.0        0.0        0.0        0.0        0.0        0.0        0.0        0.0      5.0      15.5      20.5      28.0      35.4    391.85
    21     7  2011    21     2     250.7     3.5      4.5    0.0    3.5    0.0      0.0      0.0   -9.90     15.4      8.3     54      1.1      1.1   100     16.5     9.5      57     16.8    0.81      0      0      0      0      0     4.3     4.3      0     0.08      1.1      1.1      1.1   100    34.3     0.159    -9.9    0.000    0.000      99        0.00    0.000    0.000     250.7    250.7    0.81    77.4     339.6      93.8      93.8      59.8      59.8      19.5    0.000     0.000     0.000     0.000     0.000    0.81     0.00    0.00      0   -9.90   -9.00        9.6        9.6        9.6        9.6        9.6       10.1       11.7       11.7       11.7       11.7       11.7       11.7        0.0        0.0        0.0        0.0        0.0        0.0        0.0        0.0        0.0        0.0        0.0        0.0      3.5      15.1      19.5      26.9      34.3    391.85
    22     7  2011    22     2     249.4     3.6      4.6    0.0    3.6    0.0      0.0      0.0   -9.90     14.5      8.2     57      1.3      1.3   100     15.8     9.5      60     16.5    0.83      0      0      0      0      0     5.1     5.1      0     0.09      1.3      1.3      1.3   100    34.3     0.189    -9.9    0.000    0.000      99        0.00    0.000    0.000     249.4    249.4    0.83    78.9     350.3      96.7      96.7      60.6      60.6      20.2    0.000     0.000     0.000     0.000     0.000    0.83     0.00    0.00      0   -9.90   -9.00        9.5        9.5        9.5        9.5        9.5        9.7       11.7       11.7       11.7       11.7       11.7       11.7        0.0        0.0        0.0        0.0        0.0        0.0        0.0        0.0        0.0        0.0        0.0        0.0      3.6      14.4      19.0      26.0      33.1    391.85
    23     7  2011    23     2     249.4    11.2      0.0    0.0   11.2    0.0      0.0      0.0   -9.90     14.5      9.6     67      1.5      1.5   100     16.0    11.2      70     16.6    0.86      0      0      0      0      0     6.0     6.0      0     0.10      1.5      1.5      1.5   100    34.3     0.225    -9.9    0.000    0.000      99        0.00    0.000    0.000     249.4    249.4    0.86    81.3     360.9      99.7      99.7      62.9      62.9      20.8    0.000     0.000     0.000     0.000     0.000    0.86     0.00    0.00      0   -9.90   -9.00        9.5        9.5        9.5        9.5        9.5        9.7       11.7       11.7       11.7       11.7       11.7       11.7        0.0        0.0        0.0        0.0        0.0        0.0        0.0        0.0        0.0        0.0        0.0        0.0     11.2      14.7      19.2      26.4      33.6    391.85
    24     7  2011    24     2     250.9     1.9      8.9    0.0    1.9    0.0      0.0      0.0   -9.90     15.9      7.3     46      2.0      2.0   100     17.9     9.3      52     16.9    0.88      1      0      0      0      0     7.1     7.1      0     0.12      2.0      2.0      2.0   100    34.3     0.267    -9.9    0.000    0.000      99        0.00    0.000    0.000     250.9    250.9    0.88    85.2     371.4     102.5     102.5      67.9      67.9      21.4    0.000     0.000     0.000     0.000     0.000    0.88     0.00    0.00      0   -9.90   -9.00        9.7        9.7        9.7        9.7        9.7        9.7       11.7       11.7       11.7       11.7       11.7       11.7        0.0        0.0        0.0        0.0        0.0        0.0        0.0        0.0        0.0        0.0        0.0        0.0      1.9      16.4      19.7      28.0      36.3    391.85
    25     7  2011    25     2     249.0     9.6      0.0    0.0    9.6    0.0      0.0      0.0   -9.90     13.8      9.4     68      2.1      2.1   100     15.8    11.4      72     16.4    0.91      0      0      0      0      0     8.4     8.4      0     0.14      2.1      2.1      2.1   100    34.3     0.317    -9.9    0.000    0.000      99        0.00    0.000    0.000     249.0    249.0    0.91    85.8     381.7     105.4     105.4      66.2      66.2      22.0    0.000     0.000     0.000     0.000     0.000    0.91     0.00    0.00      0   -9.90   -9.00        7.8        9.7        9.7        9.7        9.7        9.7       11.7       11.7       11.7       11.7       11.7       11.7        0.0        0.0        0.0        0.0        0.0        0.0        0.0        0.0        0.0        0.0        0.0        0.0      9.6      14.5      18.8      26.0      33.1    391.85
    26     7  2011    26     2     247.5     2.9      4.3    0.0    2.9    0.0      0.0      0.0   -9.90     12.5      6.5     52      2.2      2.2   100     14.7     8.7      59     17.4    0.93      4      0      0      0      0     9.8     9.8      0     0.17      2.2      2.2      2.2   100    34.3     0.374    -9.9    0.000    0.000      99        0.00    0.000    0.000     247.5    247.5    0.93    87.7     392.0     108.2     108.2      66.0      66.0      22.6    0.000     0.000     0.000     0.000     0.000    0.93     0.00    0.00      0   -9.90   -9.00        9.4        9.4        9.4        9.4        9.4        9.4       11.4       11.7       11.7       11.7       11.7       11.7        0.0        0.0        0.0        0.0        0.0        0.0        0.0        0.0        0.0        0.0        0.0        0.0      2.9      13.5      20.7      26.7      32.7    391.85
    27     7  2011    27     2     248.6     4.5      8.3    0.0    4.5    0.0      0.0      0.0   -9.90     14.0      8.5     61      3.0      3.0   100     17.1    11.6      68     17.2    0.95      0      0      0      0      0    11.6    11.6      0     0.19      3.0      3.0      3.0   100    34.3     0.440    -9.9    0.000    0.000      99        0.00    0.000    0.000     248.6    248.6    0.95    92.2     402.2     111.0     111.0      72.1      72.1      23.2    0.000     0.000     0.000     0.000     0.000    0.95     0.00    0.00      0   -9.90   -9.00        9.6        9.6        9.7        9.7        9.7        9.7       10.9       11.7       11.7       11.7       11.7       11.7        0.0        0.0        0.0        0.0        0.0        0.0        0.0        0.0        0.0        0.0        0.0        0.0      4.5      15.7      20.5      28.1      35.7    391.85
    28     7  2011    28     2     246.8     8.7      1.5    0.0    8.7    0.0      0.0      0.0   -9.90     12.8      8.7     68      3.4      3.4   100     16.2    12.1      75     17.5    0.98      0      0      0      0      0    13.7    13.7      0     0.23      3.4      3.4      3.4   100    34.3     0.518    -9.9    0.000    0.000      99        0.00    0.000    0.000     246.8    246.8    0.98    93.7     412.2     113.8     113.8      72.3      72.3      23.8    0.000     0.000     0.000     0.000     0.000    0.98     0.00    0.00      0   -9.90   -9.00        9.5        9.5        9.6        9.6        9.6        9.6       10.4       11.7       11.7       11.7       11.7       11.7        0.0        0.0        0.0        0.0        0.0        0.0        0.0        0.0        0.0        0.0        0.0        0.0      8.7      14.9      20.9      27.9      34.8    391.85
    29     7  2011    29     2     245.8     0.8      7.4    0.0    0.8    0.0      0.0      0.0   -9.90     12.1      5.5     45      3.8      3.8   100     15.9     9.3      58     17.5    1.00      7      0      0      0      0    15.9    15.9      0     0.26      3.8      3.8      3.8   100    34.3     0.607    -9.9    0.000    0.000      98        0.00    0.000    0.000     245.8    245.8    1.00    95.5     422.2     116.6     116.6      73.6      73.6      24.4    0.000     0.000     0.000     0.000     0.000    1.00     0.00    0.00      0   -9.90   -9.00        9.5        9.5        9.6        9.6        9.6        9.6       10.0       11.7       11.7       11.7       11.7       11.7        0.0        0.0        0.0        0.0        0.0        0.0        0.0        0.0        0.0        0.0        0.0        0.0      0.8      14.7      20.9      27.7      34.5    391.85
    30     7  2011    30     2     244.9     2.5      7.5    0.0    2.5    0.0      0.0      0.0   -9.90     11.2      6.5     58      4.3      4.3   100     15.5    10.9      70     17.0    1.02      0      0      0      0      0    18.8    18.8      0     0.30      4.3      4.3      4.3   100    34.3     0.711    -9.9    0.000    0.000      98        0.00    0.000    0.000     244.9    244.9    1.02    97.1     432.0     119.3     119.3      74.6      74.6      25.0    0.000     0.000     0.000     0.000     0.000    1.02     0.00    0.00      0   -9.90   -9.00        9.5        9.5        9.5        9.5        9.5        9.5        9.7       11.7       11.7       11.7       11.7       11.7        0.0        0.0        0.0        0.0        0.0        0.0        0.0        0.0        0.0        0.0        0.0        0.0      2.5      14.3      20.1      26.8      33.5    391.85
    31     7  2011    31     2     244.7     4.4      8.1    0.0    4.4    0.0      0.0      0.0   -9.90     10.5      7.6     73      5.0      5.0   100     15.6    12.7      81     16.6    1.05      0      0      0      0      0    22.1    22.1      0     0.35      5.0      5.0      5.0   100    34.3     0.831    -9.9    0.000    0.000      98        0.00    0.000    0.000     244.7    244.7    1.05    99.3     441.8     122.0     122.0      76.4      76.4      25.6    0.000     0.000     0.000     0.000     0.000    1.05     0.00    0.00      0   -9.90   -9.00        9.5        9.5        9.5        9.5        9.5        9.5        9.6       11.7       11.7       11.7       11.7       11.7        0.0        0.0        0.0        0.0        0.0        0.0        0.0        0.0        0.0        0.0        0.0        0.0      4.4      14.4      19.2      26.2      33.2    391.85
     1     8  2011    32     2     245.2     4.6      9.3    0.0    4.6    0.0      0.0      0.0   -9.90     10.1      7.3     73      6.0      6.0   100     16.1    13.3      83     16.4    1.07      0      0      0      0      0    26.1    26.1      0     0.40      6.0      6.0      6.0   100    34.3     0.969    -9.9    0.000    0.000      98        0.00    0.000    0.000     245.2    245.2    1.07   102.0     451.5     124.7     124.7      79.3      79.3      26.1    0.000     0.000     0.000     0.000     0.000    1.07     0.00    0.00      0   -9.90   -9.00        9.5        9.5        9.6        9.6        9.6        9.6        9.6       11.7       11.7       11.7       11.7       11.7        0.0        0.0        0.0        0.0        0.0        0.0        0.0        0.0        0.0        0.0        0.0        0.0      4.6      14.9      18.8      26.2      33.7    391.85
     2     8  2011    33     2     245.8     6.8      8.4    0.0    6.8    0.0      0.0      0.0   -9.90      9.4      7.5     79      7.1      7.1   100     16.6    14.6      88     17.2    1.09      0      0      0      0      0    30.8    30.8      0     0.46      7.1      7.1      7.1   100    34.3     1.128    -9.9    0.000    0.000      98        0.00    0.000    0.000     245.8    245.8    1.09   104.7     461.2     127.3     127.3      82.1      82.1      26.7    0.000     0.000     0.000     0.000     0.000    1.09     0.00    0.00      0   -9.90   -9.00        9.6        9.6        9.6        9.6        9.6        9.6        9.6       11.7       11.7       11.7       11.7       11.7        0.0        0.0        0.0        0.0        0.0        0.0        0.0        0.0        0.0        0.0        0.0        0.0      6.8      15.4      20.4      27.8      35.3    391.85
     3     8  2011    34     2     245.1     2.9     10.3    0.0    2.9    0.0      0.0      0.0   -9.90      8.2      6.0     73      8.0      8.0   100     16.1    13.9      86     17.7    1.12      0      0      0      0      0    36.3    36.3      0     0.53      8.0      8.0      8.0   100    34.3     1.309    -9.9    0.000    0.000      98        0.00    0.000    0.000     245.1    245.1    1.12   106.8     470.7     130.0     130.0      83.0      83.0      27.3    0.000     0.000     0.000     0.000     0.000    1.12     0.00    0.00      0   -9.90   -9.00        9.6        9.6        9.6        9.6        9.6        9.6        9.6       11.5       11.7       11.7       11.7       11.7        0.0        0.0        0.0        0.0        0.0        0.0        0.0        0.0        0.0        0.0        0.0        0.0      2.9      15.1      21.4      28.4      35.3    391.85
     4     8  2011    35     2     243.1     4.1      8.2    0.0    4.1    0.0      0.0      0.0   -9.90      6.5      5.8     90      8.5      8.5   100     15.0    14.3      95     17.2    1.14      0      0      0      0      0    42.8    42.8      0     0.60      8.5      8.5      8.5   100    34.3     1.516    -9.9    0.000    0.000      98        0.00    0.000    0.000     243.1    243.1    1.14   108.0     480.2     132.6     132.6      82.2      82.2      27.8    0.000     0.000     0.000     0.000     0.000    1.14     0.00    0.00      0   -9.90   -9.00        9.4        9.4        9.5        9.5        9.5        9.5        9.5       11.2       11.7       11.7       11.7       11.7        0.0        0.0        0.0        0.0        0.0        0.0        0.0        0.0        0.0        0.0        0.0        0.0      4.1      14.0      20.4      26.9      33.3    391.85
     5     8  2011    36     2     243.2     8.9      6.7    0.0    8.9    0.0      0.0      0.0   -9.90      5.7      5.5     96     10.1     10.1   100     15.8    15.6      99     16.8    1.16      0      0      0      0      0    50.4    50.4      0     0.68     10.1     10.1     10.1   100    34.3     1.749    -9.9    0.000    0.000      98        0.00    0.000    0.000     243.2    243.2    1.16   111.2     489.6     135.2     135.2      85.9      85.9      28.4    0.000     0.000     0.000     0.000     0.000    1.16     0.00    0.00      0   -9.90   -9.00        9.5        9.5        9.6        9.6        9.6        9.6        9.6       10.7       11.7       11.7       11.7       11.7        0.0        0.0        0.0        0.0        0.0        0.0        0.0        0.0        0.0        0.0        0.0        0.0      8.9      14.9      19.5      26.8      34.1    391.85
     6     8  2011    37     2     241.1     1.4     10.2    0.0    1.4    0.0      0.0      0.0   -9.90      4.4      3.4     77     10.3     10.3   100     14.7    13.7      93     16.7    1.18      3      0      0      0      0    57.0    57.0      0     0.74     10.3     10.3     10.3   100    34.3     2.003    -9.9    0.000    0.000      98        0.00    0.000    0.000     241.1    241.1    1.18   112.0     499.0     137.8     137.8      85.1      85.1      28.9    0.000     0.000     0.000     0.000     0.000    1.18     0.00    0.00      0   -9.90   -9.00        9.4        9.4        9.5        9.5        9.5        9.5        9.5       10.2       11.7       11.7       11.7       11.7        0.0        0.0        0.0        0.0        0.0        0.0        0.0        0.0        0.0        0.0        0.0        0.0      1.4      13.9      19.5      26.0      32.6    391.85
     7     8  2011    38     2     241.8    11.9      4.7    0.0   11.9    0.1      0.0      0.0   -9.90      4.0      4.0    100     11.9     11.9   100     15.9    15.9     100     17.0    1.20      0      0      0      0      0    62.8    62.8      0     0.79     11.9     11.9     11.9   100    34.3     2.275    -9.9    0.000    0.000      98        0.00    0.000    0.000     241.8    241.8    1.20   115.3     508.3     140.3     140.3      89.6      89.6      29.5    0.000     0.000     0.000     0.000     0.000    1.20     0.00    0.00      0   -9.90   -9.00        9.5        9.5        9.6        9.6        9.6        9.6        9.6        9.9       11.7       11.7       11.7       11.7        0.0        0.0        0.0        0.0        0.0        0.0        0.0        0.0        0.0        0.0        0.0        0.0     11.9      15.0      19.9      27.2      34.5    391.85
     8     8  2011    39     2     240.2     4.2      9.2    0.0    4.2    0.0      0.0      0.0   -9.90      3.1      3.1    100     11.8     11.8   100     14.9    14.9     100     16.9    1.23      0      0      0      0      0    67.7    67.7      0     0.83     11.8     11.8     11.8   100    34.3     2.561    -9.9    0.000    0.000      98        0.00    0.000    0.000     240.2    240.2    1.23   116.0     517.5     142.9     142.9      88.8      88.8      30.0    0.000     0.000     0.000     0.000     0.000    1.23     0.00    0.00      0   -9.90   -9.00        9.4        9.4        9.5        9.5        9.5        9.5        9.5        9.6       11.7       11.7       11.7       11.7        0.0        0.0        0.0        0.0        0.0        0.0        0.0        0.0        0.0        0.0        0.0        0.0      4.2      14.1      19.7      26.4      33.1    391.85
     9     8  2011    40     2     241.6     9.5      8.2    0.0    9.5    0.0      0.0      0.0   -9.90      2.9      2.9    100     13.3     13.3   100     16.2    16.2     100     17.2    1.25      0      0      0      0      0    71.9    71.9      0     0.87     13.3     13.3     13.3   100    34.3     2.858    -9.9    0.000    0.000      98        0.00    0.000    0.000     241.6    241.6    1.25   119.6     526.7     145.4     145.4      93.7      93.7      30.6    0.000     0.000     0.000     0.000     0.000    1.25     0.00    0.00      0   -9.90   -9.00        9.6        9.6        9.6        9.6        9.6        9.6        9.6        9.6       11.7       11.7       11.7       11.7        0.0        0.0        0.0        0.0        0.0        0.0        0.0        0.0        0.0        0.0        0.0        0.0      9.5      15.4      20.4      27.8      35.2    391.85
    10     8  2011    41     2     240.1     1.6     11.8    0.0    1.6    0.0      0.0      0.0   -9.90      2.2      2.2     96     12.7     12.7   100     15.0    14.9      99     16.9    1.27      2      0      0      0      0    75.4    75.4      0     0.89     12.7     12.7     12.7   100    34.3     3.165    -9.9    0.000    0.000      98        0.00    0.000    0.000     240.1    240.1    1.27   120.1     535.8     147.9     147.9      92.3      92.3      31.1    0.000     0.000     0.000     0.000     0.000    1.27     0.00    0.00      0   -9.90   -9.00        9.5        9.5        9.5        9.5        9.5        9.5        9.5        9.5       11.7       11.7       11.7       11.7        0.0        0.0        0.0        0.0        0.0        0.0        0.0        0.0        0.0        0.0        0.0        0.0      1.6      14.2      19.8      26.5      33.3    391.85
    11     8  2011    42     2     239.3     6.9      6.7    0.0    6.9    0.0      0.0      0.0   -9.90      1.8      1.8    100     12.5     12.5   100     14.4    14.4     100     18.0    1.29      0      0      0      0      0    78.4    78.4      0     0.92     12.5     12.5     12.5   100    34.3     3.479    -9.9    0.000    0.000      98        0.00    0.000    0.000     239.3    239.3    1.29   121.4     544.9     150.4     150.4      92.3      92.3      31.6    0.000     0.000     0.000     0.000     0.000    1.29     0.00    0.00      0   -9.90   -9.00        9.4        9.4        9.4        9.4        9.4        9.4        9.4        9.5       11.7       11.7       11.7       11.7        0.0        0.0        0.0        0.0        0.0        0.0        0.0        0.0        0.0        0.0        0.0        0.0      6.9      13.7      22.0      27.9      33.8    391.85
    12     8  2011    43     2     241.7     5.4     13.3    0.0    5.4    0.0      0.0      0.0   -9.90      1.8      1.8    100     14.5     14.5   100     16.3    16.3     100     16.4    1.31      0      0      0      0      0    81.0    81.0      0     0.94     14.5     14.5     14.5   100    34.3     3.800    -9.9    0.000    0.000      98        0.00    0.000    0.000     241.7    241.7    1.31   126.2     553.9     152.9     152.9      99.1      99.1      32.2    0.000     0.000     0.000     0.000     0.000    1.31     0.00    0.00      0   -9.90   -9.00        9.6        9.6        9.6        9.6        9.6        9.6        9.6        9.6       11.6       11.7       11.7       11.7        0.0        0.0        0.0        0.0        0.0        0.0        0.0        0.0        0.0        0.0        0.0        0.0      5.4      15.6      18.9      26.8      34.8    391.85
    13     8  2011    44     2     240.8    11.2      4.1    0.0   11.2    0.0      0.0      0.0   -9.90      1.5      1.5    100     14.6     14.6   100     16.1    16.1     100     16.3    1.33      0      0      0      0      0    83.1    83.1      0     0.95     14.6     14.6     14.6   100    34.3     4.126    -9.9    0.000    0.000      98        0.00    0.000    0.000     240.8    240.8    1.33   128.4     562.8     155.4     155.4     100.2     100.2      32.7    0.000     0.000     0.000     0.000     0.000    1.33     0.00    0.00      0   -9.90   -9.00        9.6        9.6        9.6        9.6        9.6        9.6        9.6        9.6       11.4       11.7       11.7       11.7        0.0        0.0        0.0        0.0        0.0        0.0        0.0        0.0        0.0        0.0        0.0        0.0     11.2      15.4      18.5      26.5      34.4    391.85
    14     8  2011    45     2     238.3     5.8      6.7    0.0    5.8    0.0      0.0      0.0   -9.90      1.2      1.2    100     13.8     13.8   100     15.0    15.0     100     16.7    1.35      0      0      0      0      0    85.0    85.0      0     0.96     13.8     13.8     13.8   100    34.3     4.457    -9.9    0.000    0.000      98        0.00    0.000    0.000     238.3    238.3    1.35   129.0     571.7     157.8     157.8      98.7      98.7      33.2    0.000     0.000     0.000     0.000     0.000    1.35     0.00    0.00      0   -9.90   -9.00        9.5        9.5        9.5        9.5        9.5        9.5        9.5        9.5       11.0       11.7       11.7       11.7        0.0        0.0        0.0        0.0        0.0        0.0        0.0        0.0        0.0        0.0        0.0        0.0      5.8      14.3      19.3      26.2      33.1    391.85
    15     8  2011    46     2     239.4     4.3     13.3    0.0    4.3    0.0      0.0      0.0   -9.90      1.1      1.1    100     15.3     15.3   100     16.5    16.5     100     15.9    1.37      0      0      0      0      0    86.5    86.5      0     0.97     15.3     15.3     15.3   100    34.3     4.791    -9.9    0.000    0.000      98        0.00    0.000    0.000     239.4    239.4    1.37   133.0     580.6     160.3     160.3     104.4     104.4      33.8    0.000     0.000     0.000     0.000     0.000    1.37     0.00    0.00      0   -9.90   -9.00        9.6        9.6        9.7        9.7        9.7        9.7        9.7        9.7       10.6       11.7       11.7       11.7        0.0        0.0        0.0        0.0        0.0        0.0        0.0        0.0        0.0        0.0        0.0        0.0      4.3      15.7      17.8      26.2      34.6    391.85
    16     8  2011    47     2     236.8     5.0      7.7    0.0    5.0    0.0      0.0      0.0   -9.90      0.9      0.9    100     14.4     14.4   100     15.3    15.3     100     16.5    1.40      0      0      0      0      0    87.8    87.8      0     0.98     14.4     14.4     14.4   100    34.3     5.128    -9.9    0.000    0.000      99        0.00    0.000    0.000     236.8    236.8    1.40   133.3     589.4     162.7     162.7     102.6     102.6      34.3    0.000     0.000     0.000     0.000     0.000    1.40     0.00    0.00      0   -9.90   -9.00        9.5        9.5        9.5        9.5        9.5        9.5        9.5        9.5       10.2       11.7       11.7       11.7        0.0        0.0        0.0        0.0        0.0        0.0        0.0        0.0        0.0        0.0        0.0        0.0      5.0      14.6      19.0      26.2      33.5    391.85
    17     8  2011    48     2     237.8     4.6     12.9    0.0    4.6    0.0      0.0      0.0   -9.90      0.9      0.9    100     15.6     15.6   100     16.5    16.5     100     16.4    1.42      0      0      0      0      0    89.0    89.0      0     0.99     15.6     15.6     15.6   100    34.3     5.468    -9.9    0.000    0.000      99        0.00    0.000    0.000     237.8    237.8    1.42   136.7     598.2     165.1     165.1     107.6     107.6      34.8    0.000     0.000     0.000     0.000     0.000    1.42     0.00    0.00      0   -9.90   -9.00        9.6        9.6        9.7        9.7        9.7        9.7        9.7        9.7        9.9       11.7       11.7       11.7        0.0        0.0        0.0        0.0        0.0        0.0        0.0        0.0        0.0        0.0        0.0        0.0      4.6      15.7      18.8      27.0      35.1    391.85
    18     8  2011    49     2     235.8     2.1     11.2    0.0    2.1    0.0      0.0      0.0   -9.90      0.7      0.7    100     14.6     14.6   100     15.3    15.3     100     17.4    1.44      0      0      0      0      0    89.9    89.9      0     1.00     14.6     14.6     14.6   100    34.3     5.810    -9.9    0.000    0.000      99        0.00    0.000    0.000     235.8    235.8    1.44   137.0     606.9     167.5     167.5     105.9     105.9      35.3    0.000     0.000     0.000     0.000     0.000    1.44     0.00    0.00      0   -9.90   -9.00        9.5        9.5        9.6        9.6        9.6        9.6        9.6        9.6        9.7       11.7       11.7       11.7        0.0        0.0        0.0        0.0        0.0        0.0        0.0        0.0        0.0        0.0        0.0        0.0      2.1      14.7      20.8      27.7      34.5    391.85
    19     8  2011    50     2     236.0     2.2     13.7    0.0    2.2    0.0      0.0      0.0   -9.90      0.6      0.6    100     15.0     15.0   100     15.7    15.7     100     16.9    1.46      0      0      0      0      0    90.7    90.7      0     1.00     15.0     15.0     15.0   100    34.3     6.154    -9.9    0.000    0.000      99        0.00    0.000    0.000     236.0    236.0    1.46   139.3     615.5     169.9     169.9     108.4     108.4      35.8    0.000     0.000     0.000     0.000     0.000    1.46     0.00    0.00      0   -9.90   -9.00        9.5        9.5        9.6        9.6        9.6        9.6        9.6        9.6        9.6       11.7       11.7       11.7        0.0        0.0        0.0        0.0        0.0        0.0        0.0        0.0        0.0        0.0        0.0        0.0      2.2      15.0      19.8      27.1      34.5    391.85
    20     8  2011    51     2     235.5     3.7     11.2    0.0    3.7    0.0      0.0      0.0   -9.90      0.6      0.6    100     14.9     14.9   100     15.4    15.4     100     17.2    1.48      0      0      0      0      0    91.4    91.4      0     1.01     14.9     14.9     14.9   100    34.3     6.500    -9.9    0.000    0.000      99        0.00    0.000    0.000     235.5    235.5    1.48   140.8     624.2     172.3     172.3     109.2     109.2      36.3    0.000     0.000     0.000     0.000     0.000    1.48     0.00    0.00      0   -9.90   -9.00        9.5        9.5        9.6        9.6        9.6        9.6        9.6        9.6        9.6       11.7       11.7       11.7        0.0        0.0        0.0        0.0        0.0        0.0        0.0        0.0        0.0        0.0        0.0        0.0      3.7      14.8      20.4      27.4      34.5    391.85
    21     8  2011    52     2     234.9     4.5      9.8    0.0    4.5    0.0      0.0      0.0   -9.90      0.5      0.5    100     14.5     14.5   100     15.0    15.0     100     17.4    1.50      0      0      0      0      0    91.9    91.9      0     1.01     14.5     14.5     14.5   100    34.3     6.847    -9.9    0.000    0.000      99        0.00    0.000    0.000     234.9    234.9    1.50   142.1     632.8     174.7     174.7     109.4     109.4      36.8    0.000     0.000     0.000     0.000     0.000    1.50     0.00    0.00      0   -9.90   -9.00        9.5        9.5        9.5        9.5        9.5        9.5        9.5        9.5        9.5       11.7       11.7       11.7        0.0        0.0        0.0        0.0        0.0        0.0        0.0        0.0        0.0        0.0        0.0        0.0      4.5      14.4      20.7      27.4      34.1    391.85
    22     8  2011    53     2     234.0     1.8     11.8    0.0    1.8    0.0      0.0      0.0   -9.90      0.4      0.4    100     14.0     14.0   100     14.5    14.5     100     17.1    1.52      2      0      0      0      0    92.4    92.4      0     1.01     14.0     14.0     14.0   100    34.3     7.195    -9.9    0.000    0.000      99        0.00    0.000    0.000     234.0    234.0    1.52   143.1     641.3     177.0     177.0     109.2     109.2      37.3    0.000     0.000     0.000     0.000     0.000    1.52     0.00    0.00      0   -9.90   -9.00        9.4        9.4        9.5        9.5        9.5        9.5        9.5        9.5        9.5       11.7       11.7       11.7        0.0        0.0        0.0        0.0        0.0        0.0        0.0        0.0        0.0        0.0        0.0        0.0      1.8      13.8      20.2      26.6      33.1    391.85
    23     8  2011    54     2     235.1    11.6      4.7    0.0   11.6    0.0      0.0      0.0   -9.90      0.4      0.4    100     14.8     14.8   100     15.2    15.2     100     16.4    1.54      0      0      0      0      0    92.8    92.8      0     1.02     14.8     14.8     14.8   100    34.3     7.543    -9.9    0.000    0.000      99        0.00    0.000    0.000     235.1    235.1    1.54   146.1     649.8     179.4     179.4     112.9     112.9      37.8    0.000     0.000     0.000     0.000     0.000    1.54     0.00    0.00      0   -9.90   -9.00        9.5        9.5        9.5        9.5        9.5        9.5        9.5        9.5        9.5       11.7       11.7       11.7        0.0        0.0        0.0        0.0        0.0        0.0        0.0        0.0        0.0        0.0        0.0        0.0     11.6      14.5      18.9      26.1      33.4    391.85
    24     8  2011    55     2     234.9     4.9     10.1    0.0    4.9    0.0      0.0      0.0   -9.90      0.4      0.4    100     14.8     14.8   100     15.2    15.2     100     17.8    1.56      0      0      0      0      0    93.1    93.1      0     1.02     14.8     14.8     14.8   100    34.3     7.893    -9.9    0.000    0.000      99        0.00    0.000    0.000     234.9    234.9    1.56   148.2     658.3     181.7     181.7     114.3     114.3      38.3    0.000     0.000     0.000     0.000     0.000    1.56     0.00    0.00      0   -9.90   -9.00        9.5        9.5        9.5        9.5        9.5        9.5        9.5        9.5        9.5       11.6       11.7       11.7        0.0        0.0        0.0        0.0        0.0        0.0        0.0        0.0        0.0        0.0        0.0        0.0      4.9      14.5      21.6      28.2      34.8    391.85
    25     8  2011    56     3     233.7     1.4     12.1    0.0    1.4    0.0      0.0      0.0   -9.90      0.3      0.3    100     14.4     14.4   100     14.7    14.7     100     17.6    1.58      4      0      0      0      0    93.4    93.4      0     1.02     14.4     14.4     14.4   100    34.3     8.243    -9.9    0.000    0.000      99        0.00    0.000    0.000     233.7    233.7    1.58   149.8     666.7     184.0     184.0     114.5     114.5      38.8    0.000     0.000     0.000     0.000     0.000    1.58     0.00    0.00      0   -9.90   -9.00        9.4        9.4        9.5        9.5        9.5        9.5        9.5        9.5        9.5       11.4       11.7       11.7        0.0        0.0        0.0        0.0        0.0        0.0        0.0        0.0        0.0        0.0        0.0        0.0      1.4      14.1      21.2      27.6      34.1    391.85
    26     8  2011    57     3     235.0     6.3     11.2    0.0    6.3    0.0      0.0      0.0   -9.90      0.3      0.3    100     15.8     15.8   100     16.1    16.1     100     17.1    1.60      0      0      0      0      0    93.6    93.6      0     1.02     15.8     15.8     15.8   100    34.3     8.594    -9.9    0.000    0.000      99        0.00    0.000    0.000     235.0    235.0    1.60   154.1     675.1     186.4     186.4     120.4     120.4      39.3    0.000     0.000     0.000     0.000     0.000    1.60     0.00    0.00      0   -9.90   -9.00        9.6        9.6        9.6        9.6        9.6        9.6        9.6        9.6        9.6       11.1       11.7       11.7        0.0        0.0        0.0        0.0        0.0        0.0        0.0        0.0        0.0        0.0        0.0        0.0      6.3      15.4      20.3      27.9      35.5    391.85
    27     8  2011    58     3     232.3     4.5      7.9    0.0    4.5    0.0      0.0      0.0   -9.90      0.3      0.3    100     14.8     14.8   100     15.1    15.1     100     16.7    1.62      0      0      0      0      0    93.8    93.8      0     1.02     14.8     14.8     14.8   100    34.3     8.945     1.5    0.135    0.150      99        0.02    0.000    0.000     232.3    232.3    1.62   154.3     683.5     188.7     188.7     118.5     118.5      39.8    0.000     0.000     0.000     0.000     0.000    1.62     0.00    0.00      0   -9.90   -9.00        9.5        9.5        9.5        9.5        9.5        9.5        9.5        9.5        9.5       10.7       11.7       11.7        0.0        0.0        0.0        0.0        0.0        0.0        0.0        0.0        0.0        0.0        0.0        0.0      4.5      14.4      19.4      26.5      33.6    391.85
    28     8  2011    59     3     232.4     8.8      7.0    0.0    8.8    0.0      0.0      0.0   -9.90      0.3      0.3    100     15.4     15.4   100     15.7    15.7     100     16.8    1.64      0      0      0      0      0    93.9    93.9      0     1.02     15.4     15.4     15.4   100    34.3     9.296     1.9    0.172    0.191      99        0.02    0.000    0.000     232.4    232.4    1.64   157.1     691.8     191.0     191.0     122.0     122.0      40.3    0.000     0.000     0.000     0.000     0.000    1.64     0.00    0.00      0   -9.90   -9.00        9.5        9.5        9.6        9.6        9.6        9.6        9.6        9.6        9.6       10.3       11.7       11.7        0.0        0.0        0.0        0.0        0.0        0.0        0.0        0.0        0.0        0.0        0.0        0.0      8.8      15.0      19.5      27.1      34.6    391.85
    29     8  2011    60     3     230.8     0.9     12.7    0.0    0.9    0.0      0.0      0.0   -9.90      0.3      0.3    100     14.9     14.9   100     15.2    15.2     100     17.4    1.66      7      0      0      0      0    94.0    94.0      0     1.03     14.9     14.9     14.9   100    34.3     9.648     2.3    0.218    0.243      99        0.03    0.000    0.000     230.8    230.8    1.66   157.9     700.1     193.3     193.3     121.7     121.7      40.8    0.000     0.000     0.000     0.000     0.000    1.66     0.00    0.00      0   -9.90   -9.00        9.5        9.5        9.5        9.5        9.5        9.5        9.5        9.5        9.5       10.0       11.7       11.7        0.0        0.0        0.0        0.0        0.0        0.0        0.0        0.0        0.0        0.0        0.0        0.0      0.9      14.5      20.7      27.6      34.5    391.85
    30     8  2011    61     3     229.1     3.3      9.6    0.0    3.3    0.0      0.0      0.0   -9.90      0.1      0.1    100     14.4     14.4   100     14.5    14.5     100     17.7    1.68      0      0      0      0      0    95.3    95.3      0     1.03     14.4     14.4     14.4   100    34.3    10.002     2.8    0.276    0.307      99        0.04    0.000    0.000     229.1    229.1    1.68   158.5     708.4     195.5     195.5     120.9     120.9      41.3    0.000     0.000     0.000     0.000     0.000    1.68     0.00    0.00      0   -9.90   -9.00        9.4        9.4        9.5        9.5        9.5        9.5        9.5        9.5        9.5        9.7       11.7       11.7        0.0        0.0        0.0        0.0        0.0        0.0        0.0        0.0        0.0        0.0        0.0        0.0      3.3      13.9      21.4      27.7      34.0    391.85
    31     8  2011    62     3     229.1     1.3     13.4    0.0    1.3    0.0      0.0      0.0   -9.90      0.1      0.1    100     14.6     14.6   100     14.7    14.7     100     17.4    1.70     -9      0      0      0      0    95.4    95.4      0     1.03     14.6     14.6     14.6   100    34.3    10.356     3.4    0.348    0.387      99        0.05    0.000    0.000     229.1    229.1    1.70   160.6     716.6     197.8     197.8     123.1     123.1      41.8    0.000     0.000     0.000     0.000     0.000    1.70     0.00    0.00      0   -9.90   -9.00        9.4        9.4        9.5        9.5        9.5        9.5        9.5        9.5        9.5        9.6       11.7       11.7        0.0        0.0        0.0        0.0        0.0        0.0        0.0        0.0        0.0        0.0        0.0        0.0      1.3      14.1      20.7      27.3      33.9    391.85
     1     9  2011    63     3     226.7     2.4      8.6    0.0    2.4    0.0      0.0      0.0   -9.90      0.1      0.1    100     13.3     13.3   100     13.4    13.4     100     18.0    1.71     -9      0      0      0      0    95.5    95.5      0     1.03     13.3     13.3     13.3   100    34.3    10.709     4.1    0.437    0.486      99        0.06    0.000    0.000     226.7    226.7    1.71   160.2     724.8     200.1     200.1     120.0     120.0      42.3    0.000     0.000     0.000     0.000     0.000    1.71     0.00    0.00      0   -9.90   -9.00        9.3        9.3        9.4        9.4        9.4        9.4        9.4        9.4        9.4        9.4       11.7       11.7        0.0        0.0        0.0        0.0        0.0        0.0        0.0        0.0        0.0        0.0        0.0        0.0      2.4      12.9      22.0      27.5      33.0    391.85
     2     9  2011    64     3     229.9     3.0     15.4    0.0    3.0    0.0      0.0      0.0   -9.90      0.1      0.1    100     15.1     15.1   100     15.2    15.2     100     17.0    1.73     -9      0      0      0      0    95.6    95.6      0     1.03     15.1     15.1     15.1   100    34.3    11.061     4.9    0.546    0.607      99        0.07    0.000    0.000     229.9    229.9    1.73   165.1     732.9     202.3     202.3     128.0     128.0      42.7    0.000     0.000     0.000     0.000     0.000    1.73     0.00    0.00      0   -9.90   -9.00        9.5        9.5        9.6        9.6        9.6        9.6        9.6        9.6        9.6        9.5       11.7       11.7        0.0        0.0        0.0        0.0        0.0        0.0        0.0        0.0        0.0        0.0        0.0        0.0      3.0      14.7      20.0      27.2      34.4    391.85
     3     9  2011    65     3     229.0     2.9     10.9    0.0    2.9    0.0      0.0      0.0   -9.90      0.1      0.1    100     14.5     14.5   100     14.6    14.6     100     16.9    1.75     -9      0      0      0      0    95.6    95.6      0     1.02     14.5     14.5     14.5   100    34.3    11.413     5.9    0.679    0.754      99        0.09    0.000    0.000     229.0    229.0    1.75   166.0     741.1     204.6     204.6     127.5     127.5      43.2    0.000     0.000     0.000     0.000     0.000    1.75     0.00    0.00      0   -9.90   -9.00        9.5        9.5        9.5        9.5        9.5        9.5        9.5        9.5        9.5        9.5       11.7       11.7        0.0        0.0        0.0        0.0        0.0        0.0        0.0        0.0        0.0        0.0        0.0        0.0      2.9      14.2      19.9      26.8      33.7    391.85
     4     9  2011    66     3     229.7    13.2      2.6    0.0   13.1    0.1      0.0      0.0   -9.90      0.1      0.1    100     14.9     14.9   100     15.0    15.0     100     17.0    1.77     -9      0      0      0      0    95.7    95.7      0     1.02     14.9     14.9     14.9   100    34.3    11.763     7.1    0.839    0.932      99        0.10    0.000    0.000     229.7    229.7    1.77   168.6     749.2     206.8     206.8     130.3     130.3      43.7    0.000     0.000     0.000     0.000     0.000    1.77     0.00    0.00      0   -9.90   -9.00        9.5        9.5        9.5        9.5        9.5        9.5        9.5        9.5        9.5        9.5       11.7       11.7        0.0        0.0        0.0        0.0        0.0        0.0        0.0        0.0        0.0        0.0        0.0        0.0     13.2      14.6      20.0      27.2      34.3    391.85
     5     9  2011    67     3     229.4     5.6      8.9    0.0    5.6    0.0      0.0      0.0   -9.90      0.1      0.1    100     14.7     14.7   100     14.8    14.8     100     16.9    1.79     -9      0      0      0      0    95.7    95.7      0     1.02     14.7     14.7     14.7   100    34.3    12.113     8.5    1.030    1.144      99        0.13    0.000    0.000     229.4    229.4    1.79   170.1     757.2     209.0     209.0     131.1     131.1      44.2    0.000     0.000     0.000     0.000     0.000    1.79     0.00    0.00      0   -9.90   -9.00        9.5        9.5        9.5        9.5        9.5        9.5        9.5        9.5        9.5        9.5       11.7       11.7        0.0        0.0        0.0        0.0        0.0        0.0        0.0        0.0        0.0        0.0        0.0        0.0      5.6      14.4      19.8      26.9      34.0    391.85
     6     9  2011    68     3     229.5     2.1     12.9    0.0    2.1    0.0      0.0      0.0   -9.90      0.1      0.1    100     14.8     14.8   100     14.9    14.9     100     16.8    1.81     -9      0      0      0      0    95.8    95.8      0     1.02     14.8     14.8     14.8   100    34.3    12.462    10.0    1.250    1.389      99        0.15    0.000    0.000     229.5    229.5    1.81   172.4     765.3     211.2     211.2     133.1     133.1      44.6    0.000     0.000     0.000     0.000     0.000    1.81     0.00    0.00      0   -9.90   -9.00        9.5        9.5        9.5        9.5        9.5        9.5        9.5        9.5        9.5        9.5       11.6       11.7        0.0        0.0        0.0        0.0        0.0        0.0        0.0        0.0        0.0        0.0        0.0        0.0      2.1      14.5      19.6      26.9      34.1    391.85
     7     9  2011    69     4     226.3     2.4      7.9    0.0    2.4    0.0      0.0      0.0   -9.90      0.1      0.1    100     13.4     13.4   100     13.5    13.5     100     17.4    1.83     -9      0      0      0      0    95.8    95.8      0     1.01     13.4     13.4     13.4   100    34.3    12.809    11.6    1.480    1.645      99        0.17    0.000    0.000     226.3    226.3    1.83   171.9     773.3     213.5     213.5     129.3     129.3      45.1    0.000     0.000     0.000     0.000     0.000    1.83     0.00    0.00      0   -9.90   -9.00        9.4        9.4        9.4        9.4        9.4        9.4        9.4        9.4        9.4        9.4       11.4       11.7        0.0        0.0        0.0        0.0        0.0        0.0        0.0        0.0        0.0        0.0        0.0        0.0      2.4      13.2      20.9      26.9      32.9    391.85
     8     9  2011    70     4     229.7    16.6      2.8    0.0   16.2    0.3      0.0      0.0   -9.90      0.1      0.1    100     15.6     15.6   100     15.7    15.7     100     16.8    1.85     -9      0      0      0      0    95.8    95.8      0     1.01     15.6     15.6     15.6   100    34.3    13.156    13.1    1.721    1.912      99        0.20    0.000    0.000     229.7    229.7    1.85   178.1     781.3     215.7     215.7     139.2     139.2      45.6    0.000     0.000     0.000     0.000     0.000    1.85     0.00    0.00      0   -9.90   -9.00        9.6        9.6        9.6        9.6        9.6        9.6        9.6        9.6        9.6        9.6       11.0       11.7        0.0        0.0        0.0        0.0        0.0        0.0        0.0        0.0        0.0        0.0        0.0        0.0     16.6      15.4      19.6      27.5      35.5    391.85
     9     9  2011    71     4     226.6     0.2     11.3    0.0    0.2    0.0      0.0      0.0   -9.90      0.1      0.1    100     14.5     14.5   100     14.6    14.6     100     17.1    1.87     -9      0      0      0      0    95.9    95.9      0     1.01     14.5     14.5     14.5   100    34.3    13.502    14.6    1.972    2.191      99        0.22    0.000    0.000     226.6    226.6    1.87   177.9     789.2     217.9     217.9     136.4     136.4      46.1    0.000     0.000     0.000     0.000     0.000    1.87     0.00    0.00      0   -9.90   -9.00        9.5        9.5        9.5        9.5        9.5        9.5        9.5        9.5        9.5        9.5       10.6       11.7        0.0        0.0        0.0        0.0        0.0        0.0        0.0        0.0        0.0        0.0        0.0        0.0      0.2      14.3      20.1      27.2      34.2    391.85
    10     9  2011    72     4     225.5     9.2      4.0    0.0    9.2    0.0      0.0      0.0   -9.90      0.1      0.1    100     14.3     14.3   100     14.4    14.4     100     16.5    1.89     -9      0      0      0      0    95.9    95.9      0     1.01     14.3     14.3     14.3   100    34.3    13.847    16.1    2.234    2.482      99        0.25    0.000    0.000     225.5    225.5    1.89   179.3     797.2     220.0     220.0     137.3     137.3      46.5    0.000     0.000     0.000     0.000     0.000    1.89     0.00    0.00      0   -9.90   -9.00        9.5        9.5        9.5        9.5        9.5        9.5        9.5        9.5        9.5        9.5       10.2       11.7        0.0        0.0        0.0        0.0        0.0        0.0        0.0        0.0        0.0        0.0        0.0        0.0      9.2      14.2      19.0      26.3      33.5    391.85
    11     9  2011    73     4     225.9     5.9      9.4    0.0    5.9    0.0      0.0      0.0   -9.90      0.1      0.1    100     14.8     14.8   100     14.9    14.9     100     16.7    1.90     -9      0      0      0      0    95.9    95.9      0     1.00     14.8     14.8     14.8   100    34.3    14.192    17.7    2.506    2.784      99        0.28    0.000    0.000     225.9    225.9    1.90   182.0     805.1     222.2     222.2     141.0     141.0      47.0    0.000     0.000     0.000     0.000     0.000    1.90     0.00    0.00      0   -9.90   -9.00        9.5        9.5        9.6        9.6        9.6        9.6        9.6        9.6        9.6        9.6       10.0       11.7        0.0        0.0        0.0        0.0        0.0        0.0        0.0        0.0        0.0        0.0        0.0        0.0      5.9      14.8      19.4      27.0      34.6    391.85
    12     9  2011    74     4     223.9     5.1      7.1    0.0    5.1    0.0      0.0      0.0   -9.90      0.1      0.1    100     14.1     14.1   100     14.2    14.2     100     16.7    1.92     -9      0      0      0      0    95.9    95.9      0     1.00     14.1     14.1     14.1   100    34.3    14.535    19.2    2.788    3.098      99        0.30    0.000    0.000     223.9    223.9    1.92   182.2     813.0     224.4     224.4     139.4     139.4      47.5    0.000     0.000     0.000     0.000     0.000    1.92     0.00    0.00      0   -9.90   -9.00        9.4        9.4        9.5        9.5        9.5        9.5        9.5        9.5        9.5        9.5        9.7       11.7        0.0        0.0        0.0        0.0        0.0        0.0        0.0        0.0        0.0        0.0        0.0        0.0      5.1      14.1      19.4      26.5      33.5    391.85
    13     9  2011    75     4     225.0     4.0     12.0    0.0    4.0    0.0      0.0      0.0   -9.90      0.1      0.1    100     14.7     14.7   100     14.8    14.8     100     16.6    1.94     -9      0      0      0      0    95.9    95.9      0     1.00     14.7     14.7     14.7   100    34.3    14.877    20.7    3.081    3.423      99        0.33    0.000    0.000     225.0    225.0    1.94   185.2     820.8     226.6     226.6     143.7     143.7      47.9    0.000     0.000     0.000     0.000     0.000    1.94     0.00    0.00      0   -9.90   -9.00        9.5        9.5        9.6        9.6        9.6        9.6        9.6        9.6        9.6        9.6        9.6       11.7        0.0        0.0        0.0        0.0        0.0        0.0        0.0        0.0        0.0        0.0        0.0        0.0      4.0      14.8      19.3      26.9      34.6    391.85
    14     9  2011    76     4     225.3     1.6     13.6    0.0    1.6    0.0      0.0      0.0   -9.90      0.2      0.2    100     14.7     14.7   100     14.9    14.9     100     16.8    1.96     -9      0     -9      0      0    95.3    95.3      0     0.98     14.7     14.7     14.7   100    34.3    15.215    22.2    3.383    3.759      99        0.36    0.000    0.000     225.3    225.3    1.96   187.3     828.6     228.7     228.7     145.8     145.8      48.4    0.000     0.000     0.000     0.000     0.000    1.96     0.00    0.00      0   -9.90   -9.00        9.5        9.5        9.6        9.6        9.6        9.6        9.6        9.6        9.6        9.6        9.6       11.7        0.0        0.0        0.0        0.0        0.0        0.0        0.0        0.0        0.0        0.0        0.0        0.0      1.6      14.9      19.6      27.4      35.1    391.85
    15     9  2011    77     4     221.1     2.4      6.2    0.0    2.4    0.0      0.0      0.0   -9.90      0.2      0.2    100     12.6     12.6   100     12.8    12.8     100     16.7    1.98     -9      0     -9      0      0    94.6    94.6      0     0.97     12.6     12.6     12.6   100    34.3    15.548    23.8    3.694    4.105      99        0.38    0.000    0.000     221.1    221.1    1.98   185.0     836.4     230.9     230.9     138.9     138.9      48.8    0.000     0.000     0.000     0.000     0.000    1.98     0.00    0.00      0   -9.90   -9.00        9.3        9.3        9.4        9.4        9.4        9.4        9.4        9.4        9.4        9.4        9.4       11.7        0.0        0.0        0.0        0.0        0.0        0.0        0.0        0.0        0.0        0.0        0.0        0.0      2.4      13.0      19.3      25.7      32.0    391.85
    16     9  2011    78     4     222.9     1.9     13.5    0.0    1.9    0.0      0.0      0.0   -9.90      0.3      0.3    100     13.3     13.3   100     13.6    13.6     100     16.4    2.00     -9      0     -9      0      0    93.9    93.9      0     0.96     13.3     13.3     13.3   100    34.3    15.875    25.3    4.015    4.461      99        0.41    0.000    0.000     222.9    222.9    2.00   188.6     844.2     233.0     233.0     144.2     144.2      49.3    0.000     0.000     0.000     0.000     0.000    2.00     0.00    0.00      0   -9.90   -9.00        9.4        9.4        9.5        9.5        9.5        9.5        9.5        9.5        9.5        9.5        9.5       11.7        0.0        0.0        0.0        0.0        0.0        0.0        0.0        0.0        0.0        0.0        0.0        0.0      1.9      13.9      18.8      26.0      33.2    391.85
    17     9  2011    79     4     224.9     8.0      8.3    0.0    8.0    0.0      0.0      0.0   -9.90      0.4      0.4    100     13.9     13.9   100     14.3    14.3     100     16.8    2.01     -9      0     -9      0      0    93.0    93.0      0     0.94     13.9     13.9     13.9   100    34.3    16.197    26.8    4.343    4.826      99        0.44    0.000    0.000     224.9    224.9    2.01   192.3     852.0     235.2     235.2     149.5     149.5      49.8    0.000     0.000     0.000     0.000     0.000    2.01     0.00    0.00      0   -9.90   -9.00        9.5        9.5        9.6        9.6        9.6        9.6        9.6        9.6        9.6        9.6        9.6       11.7        0.0        0.0        0.0        0.0        0.0        0.0        0.0        0.0        0.0        0.0        0.0        0.0      8.0      14.8      19.6      27.3      35.0    391.85
    18     9  2011    80     4     223.6     1.1     11.0    0.0    1.1    0.0      0.0      0.0   -9.90      0.5      0.5    100     13.1     13.1   100     13.5    13.5     100     16.3    2.03     -9      0     -9      0      0    92.0    92.0      0     0.92     13.1     13.1     13.1   100    34.3    16.513    28.3    4.680    5.200      99        0.47    0.000    0.000     223.6    223.6    2.03   192.7     859.7     237.3     237.3     148.0     148.0      50.2    0.000     0.000     0.000     0.000     0.000    2.03     0.00    0.00      0   -9.90   -9.00        9.5        9.5        9.5        9.5        9.5        9.5        9.5        9.5        9.5        9.5        9.5       11.7        0.0        0.0        0.0        0.0        0.0        0.0        0.0        0.0        0.0        0.0        0.0        0.0      1.1      14.2      18.6      26.1      33.6    391.85
    19     9  2011    81     4     233.2    22.7      0.0    0.0   21.7    1.0      0.0      0.0   -9.90      0.5      0.5    100     11.5     11.5   100     12.0    12.0     100     17.0    2.05     -9      0     -9      0      0    90.9    90.9      0     0.90     11.5     11.5     11.5   100    34.3    16.821    29.9    5.024    5.582      99        0.49    0.000    0.000     233.2    233.2    2.05   204.1     867.4     239.4     239.4     143.3     143.3      50.7    0.000     0.000     0.000     0.000     0.000    2.05     0.00    0.00      0   -9.90   -9.00       28.2        6.6        6.7        9.3        9.5        9.5        9.5        9.5        9.5        9.5        9.5       11.7        0.0        0.0        0.0        0.0        0.0        0.0        0.0        0.0        0.0        0.0        0.0        0.0     22.7      12.8      20.0      26.1      32.3    391.85
    20     9  2011    82     4     226.6     3.3      4.6    0.0    3.3    0.0      0.0      0.0   -9.90      0.7      0.7    100     13.8     13.8   100     14.6    14.6     100     16.1    2.07     -9      0     -9      0      0    89.6    89.6      0     0.88     13.8     13.8     13.8   100    34.3    17.122    31.4    5.375    5.972      99        0.52    0.000    0.000     226.6    226.6    2.07   199.9     875.1     241.5     241.5     157.6     157.6      51.1    0.000     0.000     0.000     0.000     0.000    2.07     0.00    0.00      0   -9.90   -9.00        9.6        9.6        9.7        9.7        9.7        9.7        9.7        9.7        9.7        9.7        9.7       11.5        0.0        0.0        0.0        0.0        0.0        0.0        0.0        0.0        0.0        0.0        0.0        0.0      3.3      15.8      18.3      27.2      36.0    391.85
    21     9  2011    83     4     223.4     2.6      7.5    0.0    2.6    0.0      0.0      0.0   -9.90      0.8      0.8    100     12.5     12.5   100     13.3    13.3     100     17.4    2.09     -9      0     -9      0      0    88.2    88.2      0     0.85     12.5     12.5     12.5   100    34.3    17.414    32.9    5.732    6.369      99        0.55    0.000    0.000     223.4    223.4    2.09   199.4     882.8     243.7     243.7     153.9     153.9      51.6    0.000     0.000     0.000     0.000     0.000    2.09     0.00    0.00      0   -9.90   -9.00        9.5        9.5        9.6        9.6        9.6        9.6        9.6        9.6        9.6        9.6        9.6       11.3        0.0        0.0        0.0        0.0        0.0        0.0        0.0        0.0        0.0        0.0        0.0        0.0      2.6      14.6      20.8      28.2      35.5    391.85
    22     9  2011    84     4     220.8     0.6      9.1    0.0    0.6    0.0      0.0      0.0   -9.90      0.9      0.9     96     11.5     11.5   100     12.4    12.3     100     17.1    2.10     -9      0     -9      0      0    86.6    86.6      0     0.83     11.5     11.5     11.5   100    34.3    17.697    34.4    6.095    6.773      99        0.58    0.000    0.000     220.8    220.8    2.10   199.6     890.4     245.8     245.8     151.9     151.9      52.0    0.000     0.000     0.000     0.000     0.000    2.10     0.00    0.00      0   -9.90   -9.00        9.4        9.4        9.5        9.5        9.5        9.5        9.5        9.5        9.5        9.5        9.5       10.9        0.0        0.0        0.0        0.0        0.0        0.0        0.0        0.0        0.0        0.0        0.0        0.0      0.6      13.9      20.2      27.2      34.1    391.85
    23     9  2011    85     4     217.9     7.3      1.2    0.0    7.3    0.0      0.0      0.0   -9.90      1.0      1.0    100     10.4     10.4   100     11.4    11.4     100     17.1    2.12     -9      0     -9      0      0    84.8    84.8      0     0.80     10.4     10.4     10.4   100    34.3    17.970    36.0    6.463    7.182      99        0.60    0.000    0.000     217.9    217.9    2.12   199.5     898.0     247.9     247.9     149.5     149.5      52.5    0.000     0.000     0.000     0.000     0.000    2.12     0.00    0.00      0   -9.90   -9.00        9.3        9.3        9.4        9.4        9.4        9.4        9.4        9.4        9.4        9.4        9.4       10.4        0.0        0.0        0.0        0.0        0.0        0.0        0.0        0.0        0.0        0.0        0.0        0.0      7.3      13.1      20.1      26.5      32.9    391.85
    24     9  2011    86     4     222.9    17.1      0.0    0.0   16.8    0.3      0.0      0.0   -9.90      1.2      1.2    100     10.6     10.6   100     11.9    11.9     100     16.3    2.14     -9      0     -9      0      0    82.8    82.8      0     0.76     10.6     10.6     10.6   100    34.3    18.231    37.5    6.836    7.595      99        0.63    0.000    0.000     222.9    222.9    2.14   206.3     905.6     250.0     250.0     154.8     154.8      52.9    0.000     0.000     0.000     0.000     0.000    2.14     0.00    0.00      0   -9.90   -9.00       22.4        6.5        7.0        9.4        9.4        9.4        9.4        9.4        9.4        9.4        9.4       10.4        0.0        0.0        0.0        0.0        0.0        0.0        0.0        0.0        0.0        0.0        0.0        0.0     17.1      13.9      18.5      26.0      33.5    391.85
    25     9  2011    87     4     219.3     3.0      5.0    0.0    3.0    0.0      0.0      0.0   -9.90      1.4      1.4    100     10.3     10.3   100     11.7    11.7     100     17.1    2.16     -9      0     -9      0      0    80.5    80.5      0     0.73     10.3     10.3     10.3   100    34.3    18.480    39.0    7.211    8.012      99        0.66    0.000    0.000     219.3    219.3    2.16   205.1     913.2     252.1     252.1     157.0     157.0      53.4    0.000     0.000     0.000     0.000     0.000    2.16     0.00    0.00      0   -9.90   -9.00        9.5        9.5        9.5        9.5        9.5        9.5        9.5        9.5        9.5        9.5        9.5       10.0        0.0        0.0        0.0        0.0        0.0        0.0        0.0        0.0        0.0        0.0        0.0        0.0      3.0      14.1      20.2      27.4      34.7    391.85
[...]
    10    12  2015    -9     0     214.9     5.4      0.0    0.0    5.4    0.0      0.0      0.0   -9.90     12.3      5.0     41      0.0      0.0   100     12.3     5.0      41     17.6    2.28     -9     -9     -9      0     -9     0.0     0.0      0    -9.00      0.0      0.0      0.0   100    34.5    19.992    48.2    9.632   10.702     100        0.82    0.000    0.000     214.9    214.9    2.28   213.3     965.7     266.5     266.5     151.4     160.5      56.5    0.000     0.000     0.000     0.000     0.000    2.28     0.00    0.00      0   -9.90   -9.00        2.2        9.8       11.7       10.9        9.4        9.4        9.4        9.4        9.4        9.4        9.4        9.4        0.0        0.0        0.0        0.0        0.0        0.0        0.0        0.0        0.0        0.0        0.0        0.0      5.4      11.1      21.2      27.9      34.5    401.01
    11    12  2015    -9     0     214.0     1.4      0.0    0.0    1.4    0.0      0.0      0.0   -9.90     12.8      2.4     18      0.0      0.0   100     12.8     2.4      18     16.8    2.28     -9     -9     -9      0     -9     0.0     0.0      0    -9.00      0.0      0.0      0.0   100    34.5    19.992    48.2    9.632   10.702     100        0.82    0.000    0.000     214.0    214.0    2.28   212.3     965.7     266.5     266.5     154.0     160.5      56.5    0.000     0.000     0.000     0.000     0.000    2.28     0.00    0.00      0   -9.90   -9.00        1.3        9.8       11.7       10.9        9.4        9.4        9.4        9.4        9.4        9.4        9.4        9.4        0.0        0.0        0.0        0.0        0.0        0.0        0.0        0.0        0.0        0.0        0.0        0.0      1.4      11.7      19.6      27.1      34.7    401.01
    12    12  2015    -9     0     214.9     5.9      0.0    0.0    5.9    0.0      0.0      0.0   -9.90     12.1      5.0     41      0.0      0.0   100     12.1     5.0      41     16.6    2.28     -9     -9     -9      0     -9     0.0     0.0      0    -9.00      0.0      0.0      0.0   100    34.5    19.992    48.2    9.632   10.702     100        0.82    0.000    0.000     214.9    214.9    2.28   213.3     965.7     266.5     266.5     150.7     160.5      56.5    0.000     0.000     0.000     0.000     0.000    2.28     0.00    0.00      0   -9.90   -9.00        2.2        9.8       11.7       10.9        9.4        9.4        9.4        9.4        9.4        9.4        9.4        9.4        0.0        0.0        0.0        0.0        0.0        0.0        0.0        0.0        0.0        0.0        0.0        0.0      5.9      11.0      19.2      26.2      33.2    401.01
    13    12  2015    -9     0     214.4     4.1      0.0    0.0    4.1    0.0      0.0      0.0   -9.90     11.9      4.7     40      0.0      0.0   100     11.9     4.7      40     16.5    2.28     -9     -9     -9      0     -9     0.0     0.0      0    -9.00      0.0      0.0      0.0   100    34.5    19.992    48.2    9.632   10.702     100        0.82    0.000    0.000     214.4    214.4    2.28   212.7     965.7     266.5     266.5     149.7     160.5      56.5    0.000     0.000     0.000     0.000     0.000    2.28     0.00    0.00      0   -9.90   -9.00        1.6        9.8       11.7       10.9        9.4        9.4        9.4        9.4        9.4        9.4        9.4        9.4        0.0        0.0        0.0        0.0        0.0        0.0        0.0        0.0        0.0        0.0        0.0        0.0      4.1      10.8      19.0      25.8      32.7    401.01
    14    12  2015    -9     0     216.7     8.4      0.0    0.0    8.4    0.0      0.0      0.0   -9.90     11.4      6.1     54      0.0      0.0   100     11.4     6.1      54     16.9    2.28     -9     -9     -9      0     -9     0.0     0.0      0    -9.00      0.0      0.0      0.0   100    34.5    19.992    48.2    9.632   10.702     100        0.82    0.000    0.000     216.7    216.7    2.28   215.0     965.7     266.5     266.5     147.8     160.5      56.5    0.000     0.000     0.000     0.000     0.000    2.28     0.00    0.00      0   -9.90   -9.00        4.0        9.8       11.7       10.9        9.4        9.4        9.4        9.4        9.4        9.4        9.4        9.4        0.0        0.0        0.0        0.0        0.0        0.0        0.0        0.0        0.0        0.0        0.0        0.0      8.4      10.4      19.8      26.1      32.4    401.01
    15    12  2015    -9     0     214.9     0.1      0.0    0.0    0.1    0.0      0.0      0.0   -9.90     13.2      1.9     14      0.0      0.0   100     13.2     1.9      14     16.7    2.28     -9     -9     -9      0     -9     0.0     0.0      0    -9.00      0.0      0.0      0.0   100    34.5    19.992    48.2    9.632   10.702     100        0.82    0.000    0.000     214.9    214.9    2.28   213.2     965.7     266.5     266.5     155.6     160.5      56.5    0.000     0.000     0.000     0.000     0.000    2.28     0.00    0.00      0   -9.90   -9.00        2.2        9.8       11.7       10.9        9.4        9.4        9.4        9.4        9.4        9.4        9.4        9.4        0.0        0.0        0.0        0.0        0.0        0.0        0.0        0.0        0.0        0.0        0.0        0.0      0.1      12.0      19.4      27.4      35.3    401.01
    16    12  2015    -9     0     214.1     2.8      0.0    0.0    2.8    0.0      0.0      0.0   -9.90     12.4      3.6     29      0.0      0.0   100     12.4     3.6      29     17.0    2.28     -9     -9     -9      0     -9     0.0     0.0      0    -9.00      0.0      0.0      0.0   100    34.5    19.992    48.2    9.632   10.702     100        0.82    0.000    0.000     214.1    214.1    2.28   212.4     965.7     266.5     266.5     152.1     160.5      56.5    0.000     0.000     0.000     0.000     0.000    2.28     0.00    0.00      0   -9.90   -9.00        1.4        9.8       11.7       10.9        9.4        9.4        9.4        9.4        9.4        9.4        9.4        9.4        0.0        0.0        0.0        0.0        0.0        0.0        0.0        0.0        0.0        0.0        0.0        0.0      2.8      11.3      20.1      27.1      34.2    401.01
    17    12  2015    -9     0     219.6    14.1      0.0    0.0   14.1    0.0      0.0      0.0   -9.90     13.0      8.6     66      0.0      0.0   100     13.0     8.6      66     16.2    2.28     -9     -9     -9      0     -9     0.0     0.0      0    -9.00      0.0      0.0      0.0   100    34.5    19.992    48.2    9.632   10.702     100        0.82    0.000    0.000     219.6    219.6    2.28   217.9     965.7     266.5     266.5     154.8     160.5      56.5    0.000     0.000     0.000     0.000     0.000    2.28     0.00    0.00      0   -9.90   -9.00        7.0        9.8       11.7       10.9        9.4        9.4        9.4        9.4        9.4        9.4        9.4        9.4        0.0        0.0        0.0        0.0        0.0        0.0        0.0        0.0        0.0        0.0        0.0        0.0     14.1      11.8      18.3      26.4      34.5    401.01
    18    12  2015    -9     0     217.3     5.2      0.0    0.0    5.2    0.0      0.0      0.0   -9.90     11.7      7.5     64      0.0      0.0   100     11.7     7.5      64     17.2    2.28     -9     -9     -9      0     -9     0.0     0.0      0    -9.00      0.0      0.0      0.0   100    34.5    19.992    48.2    9.632   10.702     100        0.82    0.000    0.000     217.3    217.3    2.28   215.7     965.7     266.5     266.5     149.0     160.5      56.5    0.000     0.000     0.000     0.000     0.000    2.28     0.00    0.00      0   -9.90   -9.00        4.6        9.8       11.7       10.9        9.4        9.4        9.4        9.4        9.4        9.4        9.4        9.4        0.0        0.0        0.0        0.0        0.0        0.0        0.0        0.0        0.0        0.0        0.0        0.0      5.2      10.6      20.5      26.8      33.2    401.01
    19    12  2015    -9     0     217.4     7.6      0.0    0.0    7.6    0.0      0.0      0.0   -9.90     11.3      7.5     66      0.0      0.0   100     11.3     7.5      66     17.1    2.28     -9     -9     -9      0     -9     0.0     0.0      0    -9.00      0.0      0.0      0.0   100    34.5    19.992    48.2    9.632   10.702     100        0.82    0.000    0.000     217.4    217.4    2.28   215.8     965.7     266.5     266.5     147.4     160.5      56.5    0.000     0.000     0.000     0.000     0.000    2.28     0.00    0.00      0   -9.90   -9.00        4.8        9.8       11.7       10.9        9.4        9.4        9.4        9.4        9.4        9.4        9.4        9.4        0.0        0.0        0.0        0.0        0.0        0.0        0.0        0.0        0.0        0.0        0.0        0.0      7.6      10.3      20.2      26.3      32.5    401.01
    20    12  2015    -9     0     225.7    17.5      0.0    0.0   17.5    0.0      0.0      0.0   -9.90     12.9      9.3     72      0.0      0.0   100     12.9     9.3      72     16.0    2.28     -9     -9     -9      0     -9     0.0     0.0      0    -9.00      0.0      0.0      0.0   100    34.5    19.992    48.2    9.632   10.702     100        0.82    0.000    0.000     225.7    225.7    2.28   224.1     965.7     266.5     266.5     154.3     160.5      56.5    0.000     0.000     0.000     0.000     0.000    2.28     0.00    0.00      0   -9.90   -9.00       13.2        9.8       11.7       10.9        9.4        9.4        9.4        9.4        9.4        9.4        9.4        9.4        0.0        0.0        0.0        0.0        0.0        0.0        0.0        0.0        0.0        0.0        0.0        0.0     17.5      11.7      17.9      26.0      34.1    401.01
    21    12  2015    -9     0     223.2     5.7      0.0    0.0    5.7    0.0      0.0      0.0   -9.90     11.2      8.2     74      0.0      0.0   100     11.2     8.2      74     17.6    2.28     -9     -9     -9      0     -9     0.0     0.0      0    -9.00      0.0      0.0      0.0   100    34.5    19.992    48.2    9.632   10.702     100        0.82    0.000    0.000     223.2    223.2    2.28   221.6     965.7     266.5     266.5     146.7     160.5      56.5    0.000     0.000     0.000     0.000     0.000    2.28     0.00    0.00      0   -9.90   -9.00        9.4       10.6       11.7       10.9        9.4        9.4        9.4        9.4        9.4        9.4        9.4        9.4        0.0        0.0        0.0        0.0        0.0        0.0        0.0        0.0        0.0        0.0        0.0        0.0      5.7      10.2      21.2      27.0      32.8    401.01
    22    12  2015    -9     0     221.8     7.2      0.0    0.0    7.2    0.0      0.0      0.0   -9.90     12.6      8.6     68      0.0      0.0   100     12.6     8.6      68     17.3    2.28     -9     -9     -9      0     -9     0.0     0.0      0    -9.00      0.0      0.0      0.0   100    34.5    19.992    48.2    9.632   10.702     100        0.82    0.000    0.000     221.8    221.8    2.28   220.2     965.7     266.5     266.5     152.8     160.5      56.5    0.000     0.000     0.000     0.000     0.000    2.28     0.00    0.00      0   -9.90   -9.00        8.0       10.6       11.7       10.9        9.4        9.4        9.4        9.4        9.4        9.4        9.4        9.4        0.0        0.0        0.0        0.0        0.0        0.0        0.0        0.0        0.0        0.0        0.0        0.0      7.2      11.4      20.5      27.6      34.7    401.01
    23    12  2015    -9     0     226.2    13.0      0.0    0.0   12.9    0.0      0.0      0.0   -9.90     11.5      8.6     75      0.0      0.0   100     11.5     8.6      75     16.8    2.28     -9     -9     -9      0     -9     0.0     0.0      0    -9.00      0.0      0.0      0.0   100    34.5    19.992    48.2    9.632   10.702     100        0.82    0.000    0.000     226.2    226.2    2.28   224.6     965.7     266.5     266.5     148.1     160.5      56.5    0.000     0.000     0.000     0.000     0.000    2.28     0.00    0.00      0   -9.90   -9.00       12.4       10.6       11.7       10.9        9.4        9.4        9.4        9.4        9.4        9.4        9.4        9.4        0.0        0.0        0.0        0.0        0.0        0.0        0.0        0.0        0.0        0.0        0.0        0.0     13.0      10.4      19.5      25.9      32.3    401.01
    24    12  2015    -9     0     222.7     5.2      0.0    0.0    5.2    0.0      0.0      0.0   -9.90     12.6      8.7     69      0.0      0.0   100     12.6     8.7      69     16.5    2.28     -9     -9     -9      0     -9     0.0     0.0      0    -9.00      0.0      0.0      0.0   100    34.5    19.992    48.2    9.632   10.702     100        0.82    0.000    0.000     222.7    222.7    2.28   221.0     965.7     266.5     266.5     152.9     160.5      56.5    0.000     0.000     0.000     0.000     0.000    2.28     0.00    0.00      0   -9.90   -9.00        8.2       11.0       11.7       10.9        9.4        9.4        9.4        9.4        9.4        9.4        9.4        9.4        0.0        0.0        0.0        0.0        0.0        0.0        0.0        0.0        0.0        0.0        0.0        0.0      5.2      11.4      19.1      26.6      34.0    401.01
    25    12  2015    -9     0     218.5     1.9      0.0    0.0    1.9    0.0      0.0      0.0   -9.90     11.5      6.1     53      0.0      0.0   100     11.5     6.1      53     17.4    2.28     -9     -9     -9      0     -9     0.0     0.0      0    -9.00      0.0      0.0      0.0   100    34.5    19.992    48.2    9.632   10.702     100        0.82    0.000    0.000     218.5    218.5    2.28   216.9     965.7     266.5     266.5     148.2     160.5      56.5    0.000     0.000     0.000     0.000     0.000    2.28     0.00    0.00      0   -9.90   -9.00        4.0       11.0       11.7       10.9        9.4        9.4        9.4        9.4        9.4        9.4        9.4        9.4        0.0        0.0        0.0        0.0        0.0        0.0        0.0        0.0        0.0        0.0        0.0        0.0      1.9      10.5      20.9      27.0      33.1    401.01
    26    12  2015    -9     0     217.3     4.8      0.0    0.0    4.8    0.0      0.0      0.0   -9.90     12.7      6.0     47      0.0      0.0   100     12.7     6.0      47     16.9    2.28     -9     -9     -9      0     -9     0.0     0.0      0    -9.00      0.0      0.0      0.0   100    34.5    19.992    48.2    9.632   10.702     100        0.82    0.000    0.000     217.3    217.3    2.28   215.7     965.7     266.5     266.5     153.5     160.5      56.5    0.000     0.000     0.000     0.000     0.000    2.28     0.00    0.00      0   -9.90   -9.00        2.8       11.0       11.7       10.9        9.4        9.4        9.4        9.4        9.4        9.4        9.4        9.4        0.0        0.0        0.0        0.0        0.0        0.0        0.0        0.0        0.0        0.0        0.0        0.0      4.8      11.6      19.7      27.1      34.5    401.01
    27    12  2015    -9     0     217.1     5.1      0.0    0.0    5.1    0.0      0.0      0.0   -9.90     11.0      5.3     48      0.0      0.0   100     11.0     5.3      48     17.4    2.28     -9     -9     -9      0     -9     0.0     0.0      0    -9.00      0.0      0.0      0.0   100    34.5    19.992    48.2    9.632   10.702     100        0.82    0.000    0.000     217.1    217.1    2.28   215.5     965.7     266.5     266.5     146.0     160.5      56.5    0.000     0.000     0.000     0.000     0.000    2.28     0.00    0.00      0   -9.90   -9.00        2.5       11.0       11.7       10.9        9.4        9.4        9.4        9.4        9.4        9.4        9.4        9.4        0.0        0.0        0.0        0.0        0.0        0.0        0.0        0.0        0.0        0.0        0.0        0.0      5.1      10.0      20.8      26.5      32.2    401.01
    28    12  2015    -9     0     215.8     1.8      0.0    0.0    1.8    0.0      0.0      0.0   -9.90     13.7      3.1     22      0.0      0.0   100     13.7     3.1      22     16.9    2.28     -9     -9     -9      0     -9     0.0     0.0      0    -9.00      0.0      0.0      0.0   100    34.5    19.992    48.2    9.632   10.702     100        0.82    0.000    0.000     215.8    215.8    2.28   214.1     965.7     266.5     266.5     158.0     160.5      56.5    0.000     0.000     0.000     0.000     0.000    2.28     0.00    0.00      0   -9.90   -9.00        1.2       11.0       11.7       10.9        9.4        9.4        9.4        9.4        9.4        9.4        9.4        9.4        0.0        0.0        0.0        0.0        0.0        0.0        0.0        0.0        0.0        0.0        0.0        0.0      1.8      12.5      19.8      28.0      36.3    401.01
    29    12  2015    -9     0     215.0     2.5      0.0    0.0    2.5    0.0      0.0      0.0   -9.90     12.2      3.2     26      0.0      0.0   100     12.2     3.2      26     17.5    2.28     -9     -9     -9      0     -9     0.0     0.0      0    -9.00      0.0      0.0      0.0   100    34.5    19.992    48.2    9.632   10.702     100        0.82    0.000    0.000     215.0    215.0    2.28   213.4     965.7     266.5     266.5     151.1     160.5      56.5    0.000     0.000     0.000     0.000     0.000    2.28     0.00    0.00      0   -9.90   -9.00        1.2       10.6       11.7       10.9        9.4        9.4        9.4        9.4        9.4        9.4        9.4        9.4        0.0        0.0        0.0        0.0        0.0        0.0        0.0        0.0        0.0        0.0        0.0        0.0      2.5      11.1      21.0      27.6      34.2    401.01
    30    12  2015    -9     0     214.2     1.1      0.0    0.0    1.1    0.0      0.0      0.0   -9.90     12.6      2.0     16      0.0      0.0   100     12.6     2.0      16     16.9    2.28     -9     -9     -9      0     -9     0.0     0.0      0    -9.00      0.0      0.0      0.0   100    34.5    19.992    48.2    9.632   10.702     100        0.82    0.000    0.000     214.2    214.2    2.28   212.5     965.7     266.5     266.5     152.9     160.5      56.5    0.000     0.000     0.000     0.000     0.000    2.28     0.00    0.00      0   -9.90   -9.00        1.2       10.0       11.7       10.9        9.4        9.4        9.4        9.4        9.4        9.4        9.4        9.4        0.0        0.0        0.0        0.0        0.0        0.0        0.0        0.0        0.0        0.0        0.0        0.0      1.1      11.4      19.8      27.0      34.2    401.01
    31    12  2015    -9     0     213.6     4.0      0.0    0.0    4.0    0.0      0.0      0.0   -9.90     11.8      4.5     38      0.0      0.0   100     11.8     4.5      38     17.2    2.28     -9     -9     -9      0     -9     0.0     0.0      0    -9.00      0.0      0.0      0.0   100    34.5    19.992    48.2    9.632   10.702     100        0.82    0.000    0.000     213.6    213.6    2.28   212.0     965.7     266.5     266.5     149.3     160.5      56.5    0.000     0.000     0.000     0.000     0.000    2.28     0.00    0.00      0   -9.90   -9.00        1.2        9.6       11.7       10.9        9.4        9.4        9.4        9.4        9.4        9.4        9.4        9.4        0.0        0.0        0.0        0.0        0.0        0.0        0.0        0.0        0.0        0.0        0.0        0.0      4.0      10.7      20.4      26.8      33.1    401.01
