AquaCrop 7.1 (August 2023) - Output created on (date) : 29-01-2026   at (time) : 01:20:23

   Run:   1
   Day Month  Year   DAP Stage   WC(2.30)   Rain     Irri   Surf   Infilt   RO    Drain       CR    Zgwt       Ex       E     E/Ex     Trx       Tr  Tr/Trx    ETx      ET  ET/ETx      GD       Z     StExp  StSto  StSen StSalt StWeed   CC      CCw     StTr  Kc(Tr)     Trx       Tr      TrW  Tr/Trx   WP    Biomass     HI    Y(dry)  Y(fresh)  Brelative    WPet      Bin     Bout  WC(2.30) Wr(2.30)     Z       Wr    Wr(SAT)    Wr(FC)   Wr(exp)   Wr(sto)   Wr(sen)   Wr(PWP)    SaltIn    SaltOut   SaltUp   Salt(2.30)  SaltZ     Z       ECe    ECsw   StSalt  Zgwt    ECgw       WC01       WC 2       WC 3       WC 4       WC 5       WC 6       WC 7       WC 8       WC 9       WC10       WC11       WC12      ECe01      ECe 2      ECe 3      ECe 4      ECe 5      ECe 6      ECe 7      ECe 8      ECe 9      ECe10      ECe11      ECe12     Rain       ETo      Tmin      Tavg      Tmax      CO2
                                      mm      mm       mm     mm     mm     mm       mm       mm      m        mm       mm     %        mm       mm    %        mm      mm       %  degC-day     m       %      %      %      %      %      %       %       %       -        mm       mm       mm    %     g/m2    ton/ha      %    ton/ha   ton/ha       %       kg/m3   ton/ha   ton/ha      mm       mm       m       mm        mm        mm        mm        mm        mm         mm    ton/ha    ton/ha    ton/ha    ton/ha    ton/ha     m      dS/m    dS/m      %     m      dS/m       0.05       0.18       0.33       0.48       0.63       0.80       1.00       1.20       1.43       1.68       1.93       2.18       0.05       0.18       0.33       0.48       0.63       0.80       1.00       1.20       1.43       1.68       1.93       2.18       mm        mm     degC      degC      degC       ppm
     1     7  2024     1     1     268.6     0.2      0.0    0.0    0.2    0.0      0.0      0.0   -9.90      0.2      0.2    100      0.0      0.0   100      0.2     0.2     100     20.5    0.30     -9     -9     -9      0     -9     0.0     0.0      0    -9.00      0.0      0.0      0.0   100     0.0     0.000    -9.9    0.000    0.000      -9        0.00    0.000    0.000     268.6    268.6    0.30    34.6     125.1      34.6      30.7      12.4      15.5       6.9    0.000     0.000     0.000     0.000     0.000    0.30     0.00    0.00      0   -9.90   -9.00       11.7       11.7       11.7       11.7       11.7       11.7       11.7       11.7       11.7       11.7       11.7       11.7        0.0        0.0        0.0        0.0        0.0        0.0        0.0        0.0        0.0        0.0        0.0        0.0      0.2       0.2      27.0      28.9      30.7    422.57
     2     7  2024     2     1     269.4     0.9      0.0    0.0    0.9    0.0      0.0      0.0   -9.90      0.2      0.2    100      0.0      0.0   100      0.2     0.2     100     18.9    0.30     -9     -9     -9      0     -9     0.0     0.0      0    -9.00      0.0      0.0      0.0   100     0.0     0.000    -9.9    0.000    0.000      -9        0.00    0.000    0.000     269.4    269.4    0.30    35.4     125.1      34.6      30.7      12.4      15.5       6.9    0.000     0.000     0.000     0.000     0.000    0.30     0.00    0.00      0   -9.90   -9.00       12.5       11.7       11.7       11.7       11.7       11.7       11.7       11.7       11.7       11.7       11.7       11.7        0.0        0.0        0.0        0.0        0.0        0.0        0.0        0.0        0.0        0.0        0.0        0.0      0.9       0.1      26.0      26.9      27.8    422.57
     3     7  2024     3     1     295.0    30.9      0.0    0.0   26.1    4.8      0.2      0.0   -9.90      0.2      0.2    100      0.0      0.0   100      0.2     0.2     100     20.0    0.30     -9     -9     -9      0     -9     0.0     0.0      0    -9.00      0.0      0.0      0.0   100     0.0     0.000    -9.9    0.000    0.000      -9        0.00    0.000    0.000     295.0    295.0    0.30    60.7     125.1      34.6      30.7      12.4      15.5       6.9    0.000     0.000     0.000     0.000     0.000    0.30     0.00    0.00      0   -9.90   -9.00       38.1       11.8       11.8       11.7       11.7       11.7       11.7       11.7       11.7       11.7       11.7       11.7        0.0        0.0        0.0        0.0        0.0        0.0        0.0        0.0        0.0        0.0        0.0        0.0     30.9       0.2      26.1      28.0      29.8    422.57
     4     7  2024     4     1     285.3     2.2      0.0    0.0    2.2    0.0     11.6      0.0   -9.90      0.2      0.2    100      0.0      0.0   100      0.2     0.2     100     20.4    0.30     -9     -9     -9      0     -9     0.0     0.0      0    -9.00      0.0      0.0      0.0   100     0.0     0.000    -9.9    0.000    0.000      -9        0.00    0.000    0.000     285.3    285.3    0.30    39.8     125.1      34.6      30.7      12.4      15.5       6.9    0.000     0.000     0.000     0.000     0.000    0.30     0.00    0.00      0   -9.90   -9.00       14.1       12.9       14.0       13.1       12.7       12.4       12.2       12.1       12.0       12.0       11.9       11.9        0.0        0.0        0.0        0.0        0.0        0.0        0.0        0.0        0.0        0.0        0.0        0.0      2.2       0.2      26.7      28.4      30.1    422.57
     5     7  2024     5     1     275.7     0.9      0.0    0.0    0.9    0.0     10.3      0.0   -9.90      0.2      0.2    100      0.0      0.0   100      0.2     0.2     100     19.8    0.32     -9     -9     -9      0     -9     0.0     0.0      0    -9.00      0.0      0.0      0.0   100     0.0     0.000    -9.9    0.000    0.000      -9        0.00    0.000    0.000     275.7    275.7    0.32    38.7     133.5      36.9      32.8      13.3      16.5       7.4    0.000     0.000     0.000     0.000     0.000    0.32     0.00    0.00      0   -9.90   -9.00       12.6       12.0       12.2       12.1       12.1       12.1       12.0       12.0       11.9       11.9       11.9       11.9        0.0        0.0        0.0        0.0        0.0        0.0        0.0        0.0        0.0        0.0        0.0        0.0      0.9       0.2      26.3      27.8      29.3    422.57
     6     7  2024     6     1     271.0     0.4      0.0    0.0    0.4    0.0      4.9      0.0   -9.90      0.3      0.3    100      0.0      0.0   100      0.3     0.3     100     20.0    0.36     -9     -9     -9      0     -9     0.0     0.0      0    -9.00      0.0      0.0      0.0   100     0.0     0.000    -9.9    0.000    0.000      -9        0.00    0.000    0.000     271.0    271.0    0.36    42.1     150.6      41.6      37.0      15.0      18.7       8.4    0.000     0.000     0.000     0.000     0.000    0.36     0.00    0.00      0   -9.90   -9.00       11.9       11.8       11.8       11.8       11.8       11.8       11.8       11.8       11.8       11.8       11.8       11.8        0.0        0.0        0.0        0.0        0.0        0.0        0.0        0.0        0.0        0.0        0.0        0.0      0.4       0.2      26.0      28.6      31.2    422.57
     7     7  2024     7     2     277.2     8.2      0.0    0.0    8.2    0.1      1.7      0.0   -9.90      0.2      0.2    100      0.0      0.0   100      0.2     0.2     100     18.7    0.40     -9      0      0      0      0     0.4     0.4      0     0.01      0.0      0.0      0.0   100    35.0     0.003    -9.9    0.000    0.000     100        0.00    0.000    0.000     277.2    277.2    0.40    54.0     166.4      46.0      34.2      16.6      16.6       9.3    0.000     0.000     0.000     0.000     0.000    0.40     0.00    0.00      0   -9.90   -9.00       19.8       11.7       11.7       11.7       11.7       11.7       11.7       11.7       11.7       11.7       11.7       11.7        0.0        0.0        0.0        0.0        0.0        0.0        0.0        0.0        0.0        0.0        0.0        0.0      8.2       0.2      24.9      26.7      28.5    422.57
     8     7  2024     8     2     289.2    16.4      0.0    0.0   15.4    1.0      3.2      0.0   -9.90      0.1      0.1    100      0.0      0.0   100      0.1     0.1     100     17.8    0.43     -9      0      0      0      0     0.5     0.5      0     0.01      0.0      0.0      0.0   100    35.0     0.006    -9.9    0.000    0.000     100        0.00    0.000    0.000     289.2    289.2    0.43    68.3     181.2      50.1      37.2      18.1      18.1      10.2    0.000     0.000     0.000     0.000     0.000    0.43     0.00    0.00      0   -9.90   -9.00       28.1       12.3       12.4       12.1       12.0       11.9       11.8       11.8       11.8       11.8       11.8       11.8        0.0        0.0        0.0        0.0        0.0        0.0        0.0        0.0        0.0        0.0        0.0        0.0     16.4       0.1      24.9      25.8      26.7    422.57
     9     7  2024     9     2     322.1    60.8      0.0    0.0   42.1   18.6      9.1      0.0   -9.90      0.2      0.2    100      0.0      0.0   100      0.2     0.2     100     19.6    0.47      0      0      0      0      0     0.6     0.6      0     0.01      0.0      0.0      0.0   100    35.0     0.010    -9.9    0.000    0.000     100        0.00    0.000    0.000     322.1    322.1    0.47   101.5     195.4      54.0      40.2      19.6      19.6      11.0    0.000     0.000     0.000     0.000     0.000    0.47     0.00    0.00      0   -9.90   -9.00       42.1       21.7       13.2       12.6       12.4       12.2       12.1       12.0       11.9       11.9       11.9       11.8        0.0        0.0        0.0        0.0        0.0        0.0        0.0        0.0        0.0        0.0        0.0        0.0     60.8       0.2      26.1      27.6      29.1    422.57
    10     7  2024    10     2     292.6     0.1      0.0    0.0    0.1    0.0     29.3      0.0   -9.90      0.2      0.2    100      0.0      0.0   100      0.2     0.2     100     19.5    0.50      0      0      0      0      0     0.7     0.7      0     0.01      0.0      0.0      0.0   100    35.0     0.014    -9.9    0.000    0.000     100        0.00    0.000    0.000     292.6    292.6    0.50    65.0     209.1      57.8      43.1      21.0      21.0      11.9    0.000     0.000     0.000     0.000     0.000    0.50     0.00    0.00      0   -9.90   -9.00       11.6       11.8       14.9       14.1       13.5       13.2       12.8       12.6       12.5       12.3       12.2       12.1        0.0        0.0        0.0        0.0        0.0        0.0        0.0        0.0        0.0        0.0        0.0        0.0      0.1       0.2      25.2      27.5      29.9    422.57
    11     7  2024    11     2     283.1     7.3      0.0    0.0    7.3    0.0     16.6      0.0   -9.90      0.2      0.2    100      0.0      0.0   100      0.2     0.2     100     19.3    0.53      0      0      0      0      0     0.8     0.8      0     0.01      0.0      0.0      0.0   100    35.0     0.019    -9.9    0.000    0.000     100        0.00    0.000    0.000     283.1    283.1    0.53    70.2     222.3      61.4      45.8      22.3      22.3      12.6    0.000     0.000     0.000     0.000     0.000    0.53     0.00    0.00      0   -9.90   -9.00       18.8       11.7       12.4       12.3       12.1       12.1       12.1       12.0       12.0       12.0       12.0       11.9        0.0        0.0        0.0        0.0        0.0        0.0        0.0        0.0        0.0        0.0        0.0        0.0      7.3       0.2      25.3      27.3      29.4    422.57
    12     7  2024    12     2     277.6     3.0      0.0    0.0    3.0    0.0      8.4      0.0   -9.90      0.2      0.2    100      0.0      0.0   100      0.2     0.2     100     19.6    0.56      0      0      0      0      0     1.0     1.0      0     0.02      0.0      0.0      0.0   100    35.0     0.026    -9.9    0.000    0.000     100        0.00    0.000    0.000     277.6    277.6    0.56    70.7     235.2      65.0      48.4      23.6      23.6      13.4    0.000     0.000     0.000     0.000     0.000    0.56     0.00    0.00      0   -9.90   -9.00       15.1       12.2       12.3       12.1       12.0       12.0       11.9       11.9       11.9       11.8       11.8       11.8        0.0        0.0        0.0        0.0        0.0        0.0        0.0        0.0        0.0        0.0        0.0        0.0      3.0       0.2      26.2      27.6      29.0    422.57
    13     7  2024    13     2     277.1     4.7      0.0    0.0    4.7    0.0      5.0      0.0   -9.90      0.2      0.2    100      0.0      0.0   100      0.2     0.2     100     19.2    0.59      0      0      0      0      0     1.2     1.2      0     0.02      0.0      0.0      0.0   100    35.0     0.033    -9.9    0.000    0.000     100        0.00    0.000    0.000     277.1    277.1    0.59    75.0     247.7      68.4      50.9      24.9      24.9      14.1    0.000     0.000     0.000     0.000     0.000    0.59     0.00    0.00      0   -9.90   -9.00       16.8       12.0       12.1       12.0       11.9       11.9       11.8       11.8       11.8       11.8       11.8       11.8        0.0        0.0        0.0        0.0        0.0        0.0        0.0        0.0        0.0        0.0        0.0        0.0      4.7       0.2      25.9      27.2      28.6    422.57
    14     7  2024    14     2     285.7    13.5      0.0    0.0   12.9    0.5      4.1      0.0   -9.90      0.2      0.2    100      0.0      0.0   100      0.2     0.2     100     19.1    0.62      0      0      0      0      0     1.4     1.4      0     0.02      0.0      0.0      0.0   100    35.0     0.041    -9.9    0.000    0.000     100        0.00    0.000    0.000     285.7    285.7    0.62    87.1     259.9      71.8      53.5      26.2      26.2      14.8    0.000     0.000     0.000     0.000     0.000    0.62     0.00    0.00      0   -9.90   -9.00       25.2       12.1       12.2       12.0       11.9       11.9       11.8       11.8       11.8       11.8       11.8       11.8        0.0        0.0        0.0        0.0        0.0        0.0        0.0        0.0        0.0        0.0        0.0        0.0     13.5       0.2      25.1      27.1      29.2    422.57
    15     7  2024    15     2     285.8     8.0      0.0    0.0    8.0    0.1      7.6      0.0   -9.90      0.2      0.2    100      0.0      0.0   100      0.2     0.2     100     19.5    0.65      0      0      0      0      0     1.6     1.6      0     0.03      0.0      0.0      0.0   100    35.0     0.051    -9.9    0.000    0.000     100        0.00    0.000    0.000     285.8    285.8    0.65    88.7     271.9      75.1      55.9      27.4      27.4      15.6    0.000     0.000     0.000     0.000     0.000    0.65     0.00    0.00      0   -9.90   -9.00       20.6       12.6       13.0       12.5       12.2       12.1       12.0       11.9       11.9       11.9       11.8       11.8        0.0        0.0        0.0        0.0        0.0        0.0        0.0        0.0        0.0        0.0        0.0        0.0      8.0       0.2      26.1      27.5      28.9    422.57
    16     7  2024    16     2     283.0     6.1      0.0    0.0    6.1    0.0      8.8      0.0   -9.90      0.2      0.2    100      0.0      0.0   100      0.2     0.2     100     19.7    0.67      0      0      0      0      0     1.9     1.9      0     0.03      0.0      0.0      0.0   100    35.0     0.063    -9.9    0.000    0.000     100        0.00    0.000    0.000     283.0    283.0    0.67    89.1     283.6      78.3      58.3      28.6      28.6      16.2    0.000     0.000     0.000     0.000     0.000    0.67     0.00    0.00      0   -9.90   -9.00       18.5       12.4       12.6       12.3       12.2       12.1       12.0       11.9       11.9       11.9       11.9       11.8        0.0        0.0        0.0        0.0        0.0        0.0        0.0        0.0        0.0        0.0        0.0        0.0      6.1       0.2      26.4      27.7      29.0    422.57
    17     7  2024    17     2     285.8    10.8      0.0    0.0   10.5    0.2      7.5      0.0   -9.90      0.2      0.2    100      0.0      0.0   100      0.2     0.2     100     19.4    0.70      0      0      0      0      0     2.3     2.3      0     0.04      0.0      0.0      0.0   100    35.0     0.077    -9.9    0.000    0.000     100        0.00    0.000    0.000     285.8    285.8    0.70    95.9     295.2      81.5      60.7      29.7      29.7      16.9    0.000     0.000     0.000     0.000     0.000    0.70     0.00    0.00      0   -9.90   -9.00       23.0       12.3       12.4       12.2       12.1       12.0       11.9       11.9       11.9       11.8       11.8       11.8        0.0        0.0        0.0        0.0        0.0        0.0        0.0        0.0        0.0        0.0        0.0        0.0     10.8       0.2      26.0      27.4      28.8    422.57
    18     7  2024    18     2     296.2    20.5      0.0    0.0   18.7    1.8      8.2      0.0   -9.90      0.1      0.1    100      0.0      0.0   100      0.2     0.2     100     18.2    0.73      0      0      0      0      0     2.7     2.7      0     0.05      0.0      0.0      0.0   100    35.0     0.094    -9.9    0.000    0.000     100        0.00    0.000    0.000     296.2    296.2    0.73   108.9     306.5      84.6      63.0      30.8      30.8      17.6    0.000     0.000     0.000     0.000     0.000    0.73     0.00    0.00      0   -9.90   -9.00       31.6       12.5       12.8       12.4       12.2       12.1       12.0       11.9       11.9       11.9       11.8       11.8        0.0        0.0        0.0        0.0        0.0        0.0        0.0        0.0        0.0        0.0        0.0        0.0     20.5       0.1      25.2      26.2      27.2    422.57
    19     7  2024    19     2     302.0    21.4      0.0    0.0   19.4    2.0     13.3      0.0   -9.90      0.2      0.2    100      0.0      0.0   100      0.2     0.2     100     19.4    0.75      0      0      0      0      0     3.2     3.2      0     0.06      0.0      0.0      0.0   100    35.0     0.113    -9.9    0.000    0.000     100        0.00    0.000    0.000     302.0    302.0    0.75   115.7     317.7      87.7      65.5      32.1      32.1      18.3    0.000     0.000     0.000     0.000     0.000    0.75     0.00    0.00      0   -9.90   -9.00       32.2       12.8       13.6       12.9       12.6       12.4       12.2       12.1       12.0       12.0       11.9       11.9        0.0        0.0        0.0        0.0        0.0        0.0        0.0        0.0        0.0        0.0        0.0        0.0     21.4       0.2      25.1      27.4      29.7    422.57
    20     7  2024    20     2     288.2     4.1      0.0    0.0    4.1    0.0     17.7      0.0   -9.90      0.2      0.2    100      0.0      0.0   100      0.2     0.2     100     20.4    0.78      0      0      0      0      0     3.7     3.7      0     0.06      0.0      0.0      0.0   100    35.0     0.136    -9.9    0.000    0.000     100        0.00    0.000    0.000     288.2    288.2    0.78   103.9     328.7      90.8      67.7      33.2      33.2      18.9    0.000     0.000     0.000     0.000     0.000    0.78     0.00    0.00      0   -9.90   -9.00       16.2       12.9       13.6       13.0       12.7       12.5       12.3       12.2       12.1       12.0       12.0       12.0        0.0        0.0        0.0        0.0        0.0        0.0        0.0        0.0        0.0        0.0        0.0        0.0      4.1       0.2      26.8      28.5      30.3    422.57
    21     7  2024    21     2     276.5     0.7      0.0    0.0    0.7    0.0     12.2      0.0   -9.90      0.2      0.2    100      0.0      0.0   100      0.2     0.2     100     20.4    0.81      0      0      0      0      0     4.4     4.4      0     0.08      0.0      0.0      0.0   100    35.0     0.163    -9.9    0.000    0.000     100        0.00    0.000    0.000     276.5    276.5    0.81    97.8     339.6      93.8      70.0      34.3      34.3      19.5    0.000     0.000     0.000     0.000     0.000    0.81     0.00    0.00      0   -9.90   -9.00       12.3       12.2       12.3       12.2       12.1       12.1       12.0       12.0       12.0       11.9       11.9       11.9        0.0        0.0        0.0        0.0        0.0        0.0        0.0        0.0        0.0        0.0        0.0        0.0      0.7       0.2      26.8      28.7      30.6    422.57
    22     7  2024    22     2     271.1     0.3      0.0    0.0    0.3    0.0      5.5      0.0   -9.90      0.2      0.2    100      0.0      0.0   100      0.2     0.2     100     20.5    0.83      0      0      0      0      0     5.2     5.2      0     0.09      0.0      0.0      0.0   100    35.0     0.194    -9.9    0.000    0.000     100        0.00    0.000    0.000     271.1    271.1    0.83    97.8     350.3      96.7      72.1      35.4      35.4      20.2    0.000     0.000     0.000     0.000     0.000    0.83     0.00    0.00      0   -9.90   -9.00       11.9       11.8       11.8       11.8       11.8       11.8       11.8       11.8       11.8       11.8       11.8       11.8        0.0        0.0        0.0        0.0        0.0        0.0        0.0        0.0        0.0        0.0        0.0        0.0      0.3       0.2      27.0      28.6      30.2    422.57
    23     7  2024    23     2     272.2     3.1      0.0    0.0    3.1    0.0      1.8      0.0   -9.90      0.2      0.2    100      0.0      0.0   100      0.2     0.2     100     19.4    0.86      0      0      0      0      0     6.1     6.1      0     0.10      0.0      0.0      0.0   100    35.0     0.231    -9.9    0.000    0.000     100        0.00    0.000    0.000     272.2    272.2    0.86   102.9     360.9      99.7      74.2      36.4      36.4      20.8    0.000     0.000     0.000     0.000     0.000    0.86     0.00    0.00      0   -9.90   -9.00       14.7       11.7       11.7       11.7       11.7       11.7       11.7       11.7       11.7       11.7       11.7       11.7        0.0        0.0        0.0        0.0        0.0        0.0        0.0        0.0        0.0        0.0        0.0        0.0      3.1       0.2      26.2      27.4      28.6    422.57
    24     7  2024    24     2     278.1     7.5      0.0    0.0    7.5    0.0      1.5      0.0   -9.90      0.1      0.1    100      0.0      0.0   100      0.2     0.2     100     18.7    0.88      0      0      0      0      0     7.2     7.2      0     0.12      0.0      0.0      0.0   100    35.0     0.274    -9.9    0.000    0.000     100        0.00    0.000    0.000     278.1    278.1    0.88   111.6     371.4     102.5      76.3      37.4      37.4      21.4    0.000     0.000     0.000     0.000     0.000    0.88     0.00    0.00      0   -9.90   -9.00       19.6       11.9       12.0       11.8       11.8       11.8       11.8       11.7       11.7       11.7       11.7       11.7        0.0        0.0        0.0        0.0        0.0        0.0        0.0        0.0        0.0        0.0        0.0        0.0      7.5       0.1      25.7      26.7      27.6    422.57
    25     7  2024    25     2     307.1    42.4      0.0    0.0   33.0    9.4      3.9      0.0   -9.90      0.1      0.1    100      0.0      0.0   100      0.1     0.1     100     18.1    0.91      0      0      0      0      0     8.5     8.5      0     0.14      0.0      0.0      0.0   100    35.0     0.324    -9.9    0.000    0.000     100        0.00    0.000    0.000     307.1    307.1    0.91   142.4     381.7     105.4      78.4      38.4      38.4      22.0    0.000     0.000     0.000     0.000     0.000    0.91     0.00    0.00      0   -9.90   -9.00       42.2       14.7       12.4       12.1       12.0       11.9       11.9       11.8       11.8       11.8       11.8       11.8        0.0        0.0        0.0        0.0        0.0        0.0        0.0        0.0        0.0        0.0        0.0        0.0     42.4       0.1      25.5      26.1      26.7    422.57
    26     7  2024    26     2     330.7    62.7      0.0    0.0   43.0   19.7     19.2      0.0   -9.90      0.2      0.2    100      0.0      0.0   100      0.2     0.2     100     19.0    0.93      0      0      0      0      0    10.0    10.0      0     0.17      0.0      0.0      0.0   100    35.0     0.383    -9.9    0.000    0.000     100        0.00    0.000    0.000     330.7    330.7    0.93   163.8     392.0     108.2      80.7      39.6      39.6      22.6    0.000     0.000     0.000     0.000     0.000    0.93     0.00    0.00      0   -9.90   -9.00       42.1       21.3       14.5       13.6       13.1       12.8       12.5       12.3       12.2       12.1       12.0       12.0        0.0        0.0        0.0        0.0        0.0        0.0        0.0        0.0        0.0        0.0        0.0        0.0     62.7       0.2      25.5      27.0      28.4    422.57
    27     7  2024    27     2     303.6     9.2      0.0    0.0    9.0    0.1     35.9      0.0   -9.90      0.2      0.2    100      0.0      0.0   100      0.3     0.3     100     20.1    0.95      0      0      0      0      0    11.8    11.8      0     0.20      0.0      0.0      0.0   100    35.0     0.452    -9.9    0.000    0.000     100        0.00    0.000    0.000     303.6    303.6    0.95   135.3     402.2     111.0      83.0      40.8      40.8      23.2    0.000     0.000     0.000     0.000     0.000    0.95     0.00    0.00      0   -9.90   -9.00       20.7       11.8       14.9       14.2       13.6       13.3       12.9       12.7       12.6       12.4       12.3       12.2        0.0        0.0        0.0        0.0        0.0        0.0        0.0        0.0        0.0        0.0        0.0        0.0      9.2       0.2      26.2      28.4      30.7    422.57
    28     7  2024    28     2     281.6     1.2      0.0    0.0    1.2    0.0     23.0      0.0   -9.90      0.2      0.2    100      0.0      0.0   100      0.2     0.2     100     20.4    0.98      0      0      0      0      0    14.0    14.0      0     0.23      0.0      0.0      0.0   100    35.0     0.532    -9.9    0.000    0.000     100        0.00    0.000    0.000     281.6    281.6    0.98   121.2     412.2     113.8      84.9      41.7      41.7      23.8    0.000     0.000     0.000     0.000     0.000    0.98     0.00    0.00      0   -9.90   -9.00       12.9       12.4       12.5       12.5       12.4       12.3       12.3       12.2       12.2       12.1       12.1       12.1        0.0        0.0        0.0        0.0        0.0        0.0        0.0        0.0        0.0        0.0        0.0        0.0      1.2       0.2      26.8      28.5      30.2    422.57
    29     7  2024    29     2     272.3     0.2      0.0    0.0    0.2    0.0      9.3      0.0   -9.90      0.1      0.1    100      0.0      0.0   100      0.2     0.2     100     20.2    1.00      0      0      0      0      0    16.5    16.5      0     0.27      0.0      0.0      0.0   100    35.0     0.626    -9.9    0.000    0.000     100        0.00    0.000    0.000     272.3    272.3    1.00   118.4     422.2     116.6      86.9      42.7      42.7      24.4    0.000     0.000     0.000     0.000     0.000    1.00     0.00    0.00      0   -9.90   -9.00       11.8       11.9       11.9       11.9       11.9       11.9       11.9       11.9       11.9       11.8       11.8       11.8        0.0        0.0        0.0        0.0        0.0        0.0        0.0        0.0        0.0        0.0        0.0        0.0      0.2       0.2      26.8      28.2      29.7    422.57
    30     7  2024    30     2     271.6     2.3      0.0    0.0    2.3    0.0      2.8      0.0   -9.90      0.1      0.1    100      0.1      0.1   100      0.2     0.2     100     20.0    1.02      0      0      0      0      0    19.4    19.4      0     0.31      0.1      0.1      0.1   100    35.0     0.734    -9.9    0.000    0.000     100        0.00    0.000    0.000     271.6    271.6    1.02   121.8     432.0     119.3      89.0      43.7      43.7      25.0    0.000     0.000     0.000     0.000     0.000    1.02     0.00    0.00      0   -9.90   -9.00       13.8       11.7       11.8       11.7       11.7       11.7       11.7       11.7       11.7       11.7       11.7       11.7        0.0        0.0        0.0        0.0        0.0        0.0        0.0        0.0        0.0        0.0        0.0        0.0      2.3       0.2      26.4      28.0      29.6    422.57
    31     7  2024    31     2     272.8     2.8      0.0    0.0    2.8    0.0      1.4      0.0   -9.90      0.1      0.1    100      0.1      0.1   100      0.2     0.2     100     19.7    1.05      0      0      0      0      0    22.9    22.9      0     0.36      0.1      0.1      0.1   100    35.0     0.859    -9.9    0.000    0.000     100        0.00    0.000    0.000     272.8    272.8    1.05   125.9     441.8     122.0      91.0      44.7      44.7      25.6    0.000     0.000     0.000     0.000     0.000    1.05     0.00    0.00      0   -9.90   -9.00       14.7       11.9       11.9       11.8       11.8       11.8       11.7       11.7       11.7       11.7       11.7       11.7        0.0        0.0        0.0        0.0        0.0        0.0        0.0        0.0        0.0        0.0        0.0        0.0      2.8       0.2      26.3      27.7      29.2    422.57
     1     8  2024    32     2     280.4     9.7      0.0    0.0    9.6    0.2      1.8      0.0   -9.90      0.1      0.1    100      0.1      0.1   100      0.2     0.2     100     20.2    1.07      0      0      0      0      0    27.0    27.0      0     0.41      0.1      0.1      0.1   100    35.0     1.003    -9.9    0.000    0.000     100        0.00    0.000    0.000     280.4    280.4    1.07   136.0     451.5     124.7      93.0      45.7      45.7      26.1    0.000     0.000     0.000     0.000     0.000    1.07     0.00    0.00      0   -9.90   -9.00       21.6       12.0       12.0       11.9       11.8       11.8       11.8       11.8       11.7       11.7       11.7       11.7        0.0        0.0        0.0        0.0        0.0        0.0        0.0        0.0        0.0        0.0        0.0        0.0      9.7       0.2      26.7      28.2      29.7    422.57
     2     8  2024    33     2     276.0     0.7      0.0    0.0    0.7    0.0      4.9      0.0   -9.90      0.1      0.1    100      0.1      0.1   100      0.2     0.2     100     20.1    1.09      0      0      0      0      0    31.8    31.8      0     0.47      0.1      0.1      0.1   100    35.0     1.168    -9.9    0.000    0.000     100        0.00    0.000    0.000     276.0    276.0    1.09   133.3     461.2     127.3      95.1      46.7      46.7      26.7    0.000     0.000     0.000     0.000     0.000    1.09     0.00    0.00      0   -9.90   -9.00       12.5       12.4       12.6       12.3       12.2       12.0       11.9       11.9       11.8       11.8       11.8       11.8        0.0        0.0        0.0        0.0        0.0        0.0        0.0        0.0        0.0        0.0        0.0        0.0      0.7       0.2      26.2      28.1      29.9    422.57
     3     8  2024    34     2     271.3     0.1      0.0    0.0    0.1    0.0      4.7      0.0   -9.90      0.1      0.1    100      0.1      0.1   100      0.2     0.2     100     19.9    1.12      0      0      0      0      0    37.5    37.5      0     0.54      0.1      0.1      0.1   100    35.0     1.357    -9.9    0.000    0.000     100        0.00    0.000    0.000     271.3    271.3    1.12   131.6     470.7     130.0      97.1      47.8      47.8      27.3    0.000     0.000     0.000     0.000     0.000    1.12     0.00    0.00      0   -9.90   -9.00       11.6       11.8       11.9       11.9       11.9       11.9       11.8       11.8       11.8       11.8       11.8       11.8        0.0        0.0        0.0        0.0        0.0        0.0        0.0        0.0        0.0        0.0        0.0        0.0      0.1       0.2      25.7      28.0      30.3    422.57
     4     8  2024    35     2     287.8    20.5      0.0    0.0   18.7    1.8      2.0      0.0   -9.90      0.1      0.1    100      0.1      0.1   100      0.1     0.1     100     18.1    1.14      0      0      0      0      0    44.3    44.3      0     0.61      0.1      0.1      0.1   100    35.0     1.571    -9.9    0.000    0.000     100        0.00    0.000    0.000     287.8    287.8    1.14   151.5     480.2     132.6      98.7      48.5      48.5      27.8    0.000     0.000     0.000     0.000     0.000    1.14     0.00    0.00      0   -9.90   -9.00       30.5       11.7       11.8       11.7       11.7       11.7       11.7       11.7       11.7       11.7       11.7       11.7        0.0        0.0        0.0        0.0        0.0        0.0        0.0        0.0        0.0        0.0        0.0        0.0     20.5       0.1      25.2      26.1      27.0    422.57
     5     8  2024    36     2     306.1    31.5      0.0    0.0   26.4    5.0      8.0      0.0   -9.90      0.1      0.1    100      0.1      0.1   100      0.1     0.1     100     18.1    1.16      0      0      0      0      0    51.8    51.8      0     0.69      0.1      0.1      0.1   100    35.0     1.812    -9.9    0.000    0.000     100        0.00    0.000    0.000     306.1    306.1    1.16   170.4     489.6     135.2     100.7      49.5      49.5      28.4    0.000     0.000     0.000     0.000     0.000    1.16     0.00    0.00      0   -9.90   -9.00       38.9       12.8       13.4       12.7       12.3       12.2       12.1       12.0       11.9       11.9       11.9       11.8        0.0        0.0        0.0        0.0        0.0        0.0        0.0        0.0        0.0        0.0        0.0        0.0     31.5       0.1      25.1      26.1      27.1    422.57
     6     8  2024    37     2     313.7    32.3      0.0    0.0   27.0    5.3     19.2      0.0   -9.90      0.1      0.1    100      0.1      0.1   100      0.2     0.2     100     19.4    1.18      0      0      0      0      0    58.4    58.4      0     0.75      0.1      0.1      0.1   100    35.0     2.075    -9.9    0.000    0.000     100        0.00    0.000    0.000     313.7    313.7    1.18   178.4     499.0     137.8     102.8      50.6      50.6      28.9    0.000     0.000     0.000     0.000     0.000    1.18     0.00    0.00      0   -9.90   -9.00       39.4       12.8       14.1       13.4       12.9       12.7       12.4       12.3       12.2       12.1       12.0       12.0        0.0        0.0        0.0        0.0        0.0        0.0        0.0        0.0        0.0        0.0        0.0        0.0     32.3       0.2      25.7      27.4      29.0    422.57
     7     8  2024    38     2     290.2     1.6      0.0    0.0    1.6    0.0     25.0      0.0   -9.90      0.0      0.0    100      0.1      0.1   100      0.2     0.2     100     19.2    1.20      0      0      0      0      0    64.0    64.0      0     0.80      0.1      0.1      0.1   100    35.0     2.354    -9.9    0.000    0.000     100        0.00    0.000    0.000     290.2    290.2    1.20   156.5     508.3     140.3     104.7      51.5      51.5      29.5    0.000     0.000     0.000     0.000     0.000    1.20     0.00    0.00      0   -9.90   -9.00       13.4       12.8       14.2       13.4       13.0       12.8       12.5       12.4       12.3       12.2       12.1       12.1        0.0        0.0        0.0        0.0        0.0        0.0        0.0        0.0        0.0        0.0        0.0        0.0      1.6       0.2      25.9      27.2      28.6    422.57
     8     8  2024    39     2     284.2     8.6      0.0    0.0    8.5    0.1     14.3      0.0   -9.90      0.0      0.0    100      0.2      0.2   100      0.2     0.2     100     19.6    1.23      0      0      0      0      0    68.8    68.8      0     0.84      0.2      0.2      0.2   100    35.0     2.647    -9.9    0.000    0.000     100        0.00    0.000    0.000     284.2    284.2    1.23   155.8     517.5     142.9     106.6      52.5      52.5      30.0    0.000     0.000     0.000     0.000     0.000    1.23     0.00    0.00      0   -9.90   -9.00       20.4       11.9       12.3       12.1       12.1       12.1       12.0       12.0       12.0       12.0       11.9       11.9        0.0        0.0        0.0        0.0        0.0        0.0        0.0        0.0        0.0        0.0        0.0        0.0      8.6       0.2      25.9      27.6      29.3    422.57
     9     8  2024    40     2     281.7     6.1      0.0    0.0    6.1    0.0      8.4      0.0   -9.90      0.0      0.0    100      0.2      0.2   100      0.2     0.2     100     20.0    1.25      0      0      0      0      0    72.8    72.8      0     0.87      0.2      0.2      0.2   100    35.0     2.950    -9.9    0.000    0.000     100        0.00    0.000    0.000     281.7    281.7    1.25   156.9     526.7     145.4     108.6      53.4      53.4      30.6    0.000     0.000     0.000     0.000     0.000    1.25     0.00    0.00      0   -9.90   -9.00       18.5       12.4       12.5       12.2       12.1       12.0       11.9       11.9       11.9       11.9       11.8       11.8        0.0        0.0        0.0        0.0        0.0        0.0        0.0        0.0        0.0        0.0        0.0        0.0      6.1       0.2      26.2      28.0      29.8    422.57
    10     8  2024    41     2     278.1     3.4      0.0    0.0    3.4    0.0      6.8      0.0   -9.90      0.0      0.0    100      0.1      0.1   100      0.2     0.2     100     19.1    1.27      0      0      0      0      0    76.2    76.2      0     0.89      0.1      0.1      0.1   100    35.0     3.263    -9.9    0.000    0.000     100        0.00    0.000    0.000     278.1    278.1    1.27   156.1     535.8     147.9     110.3      54.2      54.2      31.1    0.000     0.000     0.000     0.000     0.000    1.27     0.00    0.00      0   -9.90   -9.00       15.5       12.3       12.4       12.2       12.0       12.0       11.9       11.9       11.9       11.8       11.8       11.8        0.0        0.0        0.0        0.0        0.0        0.0        0.0        0.0        0.0        0.0        0.0        0.0      3.4       0.2      25.9      27.1      28.2    422.57
    11     8  2024    42     2     287.1    15.1      0.0    0.0   14.3    0.8      5.1      0.0   -9.90      0.0      0.0    100      0.2      0.2   100      0.2     0.2     100     19.2    1.29      0      0      0      0      0    79.1    79.1      0     0.91      0.2      0.2      0.2   100    35.0     3.584    -9.9    0.000    0.000     100        0.00    0.000    0.000     287.1    287.1    1.29   168.0     544.9     150.4     112.3      55.2      55.2      31.6    0.000     0.000     0.000     0.000     0.000    1.29     0.00    0.00      0   -9.90   -9.00       26.6       12.1       12.1       12.0       11.9       11.9       11.9       11.8       11.8       11.8       11.8       11.8        0.0        0.0        0.0        0.0        0.0        0.0        0.0        0.0        0.0        0.0        0.0        0.0     15.1       0.2      25.4      27.2      29.0    422.57
    12     8  2024    43     2     324.1    68.5      0.0    0.0   45.4   23.2      8.2      0.0   -9.90      0.0      0.0    100      0.2      0.2   100      0.2     0.2     100     20.0    1.31      0      0      0      0      0    81.6    81.6      0     0.93      0.2      0.2      0.2   100    35.0     3.910    -9.9    0.000    0.000     100        0.00    0.000    0.000     324.1    324.1    1.31   206.8     553.9     152.9     114.2      56.2      56.2      32.2    0.000     0.000     0.000     0.000     0.000    1.31     0.00    0.00      0   -9.90   -9.00       42.1       23.9       13.1       12.5       12.3       12.1       12.0       12.0       11.9       11.9       11.8       11.8        0.0        0.0        0.0        0.0        0.0        0.0        0.0        0.0        0.0        0.0        0.0        0.0     68.5       0.2      26.0      28.0      30.1    422.57
    13     8  2024    44     2     294.3     0.8      0.0    0.0    0.8    0.0     30.4      0.0   -9.90      0.0      0.0    100      0.2      0.2   100      0.2     0.2     100     20.5    1.33      0      0      0      0      0    83.7    83.7      0     0.95      0.2      0.2      0.2   100    35.0     4.242    -9.9    0.000    0.000     100        0.00    0.000    0.000     294.3    294.3    1.33   175.3     562.8     155.4     116.0      57.1      57.1      32.7    0.000     0.000     0.000     0.000     0.000    1.33     0.00    0.00      0   -9.90   -9.00       12.3       11.7       15.0       14.2       13.6       13.2       12.9       12.6       12.5       12.3       12.2       12.2        0.0        0.0        0.0        0.0        0.0        0.0        0.0        0.0        0.0        0.0        0.0        0.0      0.8       0.2      27.0      28.5      30.1    422.57
    14     8  2024    45     2     277.9     1.4      0.0    0.0    1.4    0.0     17.6      0.0   -9.90      0.0      0.0    100      0.2      0.2   100      0.2     0.2     100     20.4    1.35      0      0      0      0      0    85.4    85.4      0     0.96      0.2      0.2      0.2   100    35.0     4.578    -9.9    0.000    0.000     100        0.00    0.000    0.000     277.9    277.9    1.35   164.4     571.7     157.8     117.8      58.0      58.0      33.2    0.000     0.000     0.000     0.000     0.000    1.35     0.00    0.00      0   -9.90   -9.00       13.0       11.8       12.5       12.3       12.2       12.1       12.1       12.1       12.0       12.0       12.0       12.0        0.0        0.0        0.0        0.0        0.0        0.0        0.0        0.0        0.0        0.0        0.0        0.0      1.4       0.2      26.9      28.4      30.0    422.57
    15     8  2024    46     2     275.1     3.9      0.0    0.0    3.9    0.0      6.5      0.0   -9.90      0.0      0.0    100      0.2      0.2   100      0.2     0.2     100     19.4    1.37      0      0      0      0      0    86.9    86.9      0     0.97      0.2      0.2      0.2   100    35.0     4.917    -9.9    0.000    0.000     100        0.00    0.000    0.000     275.1    275.1    1.37   165.9     580.6     160.3     119.6      58.9      58.9      33.8    0.000     0.000     0.000     0.000     0.000    1.37     0.00    0.00      0   -9.90   -9.00       15.7       11.8       11.9       11.8       11.8       11.8       11.8       11.8       11.8       11.8       11.8       11.8        0.0        0.0        0.0        0.0        0.0        0.0        0.0        0.0        0.0        0.0        0.0        0.0      3.9       0.2      26.0      27.4      28.9    422.57
    16     8  2024    47     2     290.2    20.3      0.0    0.0   18.5    1.8      3.3      0.0   -9.90      0.0      0.0    100      0.2      0.2   100      0.2     0.2     100     19.3    1.40      0      0      0      0      0    88.2    88.2      0     0.98      0.2      0.2      0.2   100    35.0     5.260    -9.9    0.000    0.000     100        0.00    0.000    0.000     290.2    290.2    1.40   183.8     589.4     162.7     121.4      59.7      59.7      34.3    0.000     0.000     0.000     0.000     0.000    1.40     0.00    0.00      0   -9.90   -9.00       30.9       12.0       12.1       11.9       11.9       11.8       11.8       11.8       11.8       11.8       11.8       11.7        0.0        0.0        0.0        0.0        0.0        0.0        0.0        0.0        0.0        0.0        0.0        0.0     20.3       0.2      25.9      27.3      28.6    422.57
    17     8  2024    48     2     289.9     9.3      0.0    0.0    9.2    0.1      9.3      0.0   -9.90      0.0      0.0    100      0.1      0.1   100      0.1     0.1     100     18.8    1.42      0      0      0      0      0    89.3    89.3      0     0.98      0.1      0.1      0.1   100    35.0     5.605    -9.9    0.000    0.000     100        0.00    0.000    0.000     289.9    289.9    1.42   184.8     598.2     165.1     122.8      60.4      60.4      34.8    0.000     0.000     0.000     0.000     0.000    1.42     0.00    0.00      0   -9.90   -9.00       22.0       12.8       13.4       12.7       12.4       12.2       12.1       12.0       12.0       11.9       11.9       11.8        0.0        0.0        0.0        0.0        0.0        0.0        0.0        0.0        0.0        0.0        0.0        0.0      9.3       0.1      26.3      26.8      27.3    422.57
    18     8  2024    49     2     298.1    21.4      0.0    0.0   19.3    2.0     11.0      0.0   -9.90      0.0      0.0    100      0.1      0.1   100      0.2     0.2     100     19.1    1.44      0      0      0      0      0    90.2    90.2      0     0.99      0.1      0.1      0.1   100    35.0     5.952    -9.9    0.000    0.000     100        0.00    0.000    0.000     298.1    298.1    1.44   195.3     606.9     167.5     124.9      61.5      61.5      35.3    0.000     0.000     0.000     0.000     0.000    1.44     0.00    0.00      0   -9.90   -9.00       32.3       12.5       12.8       12.5       12.3       12.2       12.1       12.0       12.0       11.9       11.9       11.9        0.0        0.0        0.0        0.0        0.0        0.0        0.0        0.0        0.0        0.0        0.0        0.0     21.4       0.1      25.9      27.1      28.2    422.57
    19     8  2024    50     2     288.8     5.8      0.0    0.0    5.8    0.0     14.9      0.0   -9.90      0.0      0.0    100      0.2      0.2   100      0.2     0.2     100     19.0    1.46      0      0      0      0      0    90.9    90.9      0     1.00      0.2      0.2      0.2   100    35.0     6.301    -9.9    0.000    0.000     100        0.00    0.000    0.000     288.8    288.8    1.46   187.9     615.5     169.9     126.7      62.4      62.4      35.8    0.000     0.000     0.000     0.000     0.000    1.46     0.00    0.00      0   -9.90   -9.00       18.2       12.9       13.6       12.9       12.6       12.4       12.2       12.1       12.1       12.0       12.0       11.9        0.0        0.0        0.0        0.0        0.0        0.0        0.0        0.0        0.0        0.0        0.0        0.0      5.8       0.2      25.8      27.0      28.2    422.57
    20     8  2024    51     2     291.1    14.7      0.0    0.0   14.0    0.7     11.6      0.0   -9.90      0.0      0.0    100      0.1      0.1   100      0.1     0.1     100     18.5    1.48      0      0      0      0      0    91.6    91.6      0     1.00      0.1      0.1      0.1   100    35.0     6.652    -9.9    0.000    0.000     100        0.00    0.000    0.000     291.1    291.1    1.48   193.1     624.2     172.3     128.4      63.2      63.2      36.3    0.000     0.000     0.000     0.000     0.000    1.48     0.00    0.00      0   -9.90   -9.00       26.5       12.3       12.5       12.3       12.2       12.1       12.0       12.0       12.0       11.9       11.9       11.9        0.0        0.0        0.0        0.0        0.0        0.0        0.0        0.0        0.0        0.0        0.0        0.0     14.7       0.1      25.5      26.5      27.5    422.57
    21     8  2024    52     2     287.7     8.2      0.0    0.0    8.1    0.1     11.3      0.0   -9.90      0.0      0.0    100      0.2      0.2   100      0.2     0.2     100     18.7    1.50      0      0      0      0      0    92.1    92.1      0     1.00      0.2      0.2      0.2   100    35.0     7.003    -9.9    0.000    0.000     100        0.00    0.000    0.000     287.7    287.7    1.50   192.2     632.8     174.7     130.4      64.2      64.2      36.8    0.000     0.000     0.000     0.000     0.000    1.50     0.00    0.00      0   -9.90   -9.00       20.8       12.7       13.1       12.6       12.3       12.2       12.1       12.0       12.0       11.9       11.9       11.9        0.0        0.0        0.0        0.0        0.0        0.0        0.0        0.0        0.0        0.0        0.0        0.0      8.2       0.2      25.1      26.7      28.2    422.57
    22     8  2024    53     2     291.3    14.5      0.0    0.0   13.8    0.7     10.0      0.0   -9.90      0.0      0.0    100      0.2      0.2   100      0.2     0.2     100     19.2    1.52      0      0      0      0      0    92.6    92.6      0     1.01      0.2      0.2      0.2   100    35.0     7.356    -9.9    0.000    0.000     100        0.00    0.000    0.000     291.3    291.3    1.52   198.4     641.3     177.0     132.2      65.1      65.1      37.3    0.000     0.000     0.000     0.000     0.000    1.52     0.00    0.00      0   -9.90   -9.00       26.5       12.4       12.7       12.4       12.2       12.1       12.0       12.0       11.9       11.9       11.9       11.9        0.0        0.0        0.0        0.0        0.0        0.0        0.0        0.0        0.0        0.0        0.0        0.0     14.5       0.2      25.4      27.2      28.9    422.57
    23     8  2024    54     2     290.4    10.8      0.0    0.0   10.5    0.3     11.2      0.0   -9.90      0.0      0.0    100      0.2      0.2   100      0.2     0.2     100     20.1    1.54      0      0      0      0      0    93.0    93.0      0     1.01      0.2      0.2      0.2   100    35.0     7.710    -9.9    0.000    0.000     100        0.00    0.000    0.000     290.4    290.4    1.54   199.7     649.8     179.4     134.1      66.1      66.1      37.8    0.000     0.000     0.000     0.000     0.000    1.54     0.00    0.00      0   -9.90   -9.00       23.3       12.7       13.1       12.6       12.3       12.2       12.1       12.0       12.0       11.9       11.9       11.9        0.0        0.0        0.0        0.0        0.0        0.0        0.0        0.0        0.0        0.0        0.0        0.0     10.8       0.2      26.2      28.6      31.0    422.57
    24     8  2024    55     2     279.8     1.1      0.0    0.0    1.1    0.0     11.5      0.0   -9.90      0.0      0.0    100      0.2      0.2   100      0.2     0.2     100     19.3    1.56      0      0      0      0      0    93.3    93.3      0     1.01      0.2      0.2      0.2   100    35.0     8.064    -9.9    0.000    0.000     100        0.00    0.000    0.000     279.8    279.8    1.56   191.4     658.3     181.7     135.6      66.8      66.8      38.3    0.000     0.000     0.000     0.000     0.000    1.56     0.00    0.00      0   -9.90   -9.00       12.8       12.6       12.9       12.5       12.5       12.2       12.1       12.1       12.0       11.9       11.9       11.9        0.0        0.0        0.0        0.0        0.0        0.0        0.0        0.0        0.0        0.0        0.0        0.0      1.1       0.2      25.8      27.3      28.8    422.57
    25     8  2024    56     3     274.4     2.0      0.0    0.0    2.0    0.0      7.3      0.0   -9.90      0.0      0.0    100      0.2      0.2   100      0.2     0.2     100     20.2    1.58      0      0      0      0      0    93.5    93.5      0     1.01      0.2      0.2      0.2   100    35.0     8.420    -9.9    0.000    0.000     100        0.00    0.000    0.000     274.4    274.4    1.58   189.0     666.7     184.0     137.5      67.8      67.8      38.8    0.000     0.000     0.000     0.000     0.000    1.58     0.00    0.00      0   -9.90   -9.00       13.7       11.9       12.0       12.0       11.9       11.9       11.9       11.9       11.9       11.8       11.8       11.8        0.0        0.0        0.0        0.0        0.0        0.0        0.0        0.0        0.0        0.0        0.0        0.0      2.0       0.2      26.3      28.3      30.4    422.57
    26     8  2024    57     3     282.5    12.2      0.0    0.0   11.8    0.4      3.5      0.0   -9.90      0.0      0.0    100      0.2      0.2   100      0.2     0.2     100     19.4    1.60      0      0      0      0      0    93.7    93.7      0     1.01      0.2      0.2      0.2   100    35.0     8.775    -9.9    0.000    0.000     100        0.00    0.000    0.000     282.5    282.5    1.60   199.9     675.1     186.4     139.1      68.5      68.5      39.3    0.000     0.000     0.000     0.000     0.000    1.60     0.00    0.00      0   -9.90   -9.00       23.8       11.9       11.9       11.8       11.8       11.8       11.8       11.8       11.8       11.8       11.8       11.8        0.0        0.0        0.0        0.0        0.0        0.0        0.0        0.0        0.0        0.0        0.0        0.0     12.2       0.2      25.9      27.4      28.9    422.57
    27     8  2024    58     3     282.8     6.3      0.0    0.0    6.3    0.0      5.9      0.0   -9.90      0.0      0.0    100      0.2      0.2   100      0.2     0.2     100     20.2    1.62      0      0      0      0      0    93.9    93.9      0     1.02      0.2      0.2      0.2   100    35.0     9.131     1.5    0.137    0.153     100        1.22    0.000    0.000     282.8    282.8    1.62   202.0     683.5     188.7     141.0      69.5      69.5      39.8    0.000     0.000     0.000     0.000     0.000    1.62     0.00    0.00      0   -9.90   -9.00       18.8       12.5       12.8       12.3       12.1       12.0       11.9       11.9       11.9       11.8       11.8       11.8        0.0        0.0        0.0        0.0        0.0        0.0        0.0        0.0        0.0        0.0        0.0        0.0      6.3       0.2      26.4      28.3      30.2    422.57
    28     8  2024    59     3     275.9     0.6      0.0    0.0    0.6    0.0      7.3      0.0   -9.90      0.0      0.0    100      0.2      0.2   100      0.2     0.2     100     20.5    1.64      0      0      0      0      0    94.0    94.0      0     1.02      0.2      0.2      0.2   100    35.0     9.487     1.8    0.175    0.194     100        1.52    0.000    0.000     275.9    275.9    1.64   197.4     691.8     191.0     142.6      70.3      70.3      40.3    0.000     0.000     0.000     0.000     0.000    1.64     0.00    0.00      0   -9.90   -9.00       12.3       12.3       12.5       12.3       12.2       12.0       12.0       11.9       11.9       11.9       11.8       11.8        0.0        0.0        0.0        0.0        0.0        0.0        0.0        0.0        0.0        0.0        0.0        0.0      0.6       0.2      27.0      28.7      30.4    422.57
    29     8  2024    60     3     272.3     1.4      0.0    0.0    1.4    0.0      4.8      0.0   -9.90      0.0      0.0    100      0.2      0.2   100      0.2     0.2     100     19.6    1.66      0      0      0      0      0    95.2    95.2      0     1.02      0.2      0.2      0.2   100    35.0     9.846     2.3    0.222    0.247     100        1.90    0.000    0.000     272.3    272.3    1.66   196.5     700.1     193.3     144.2      71.1      71.1      40.8    0.000     0.000     0.000     0.000     0.000    1.66     0.00    0.00      0   -9.90   -9.00       13.0       11.8       11.9       11.9       11.9       11.8       11.8       11.8       11.8       11.8       11.8       11.8        0.0        0.0        0.0        0.0        0.0        0.0        0.0        0.0        0.0        0.0        0.0        0.0      1.4       0.2      26.2      27.6      29.1    422.57
    30     8  2024    61     3     288.4    20.3      0.0    0.0   18.5    1.8      2.3      0.0   -9.90      0.0      0.0    100      0.2      0.2   100      0.2     0.2     100     19.7    1.68     -9      0      0      0      0    95.3    95.3      0     1.02      0.2      0.2      0.2   100    35.0    10.205     2.8    0.281    0.312     100        2.36    0.000    0.000     288.4    288.4    1.68   215.1     708.4     195.5     146.1      72.0      72.0      41.3    0.000     0.000     0.000     0.000     0.000    1.68     0.00    0.00      0   -9.90   -9.00       30.5       11.8       11.8       11.8       11.8       11.8       11.8       11.7       11.7       11.7       11.7       11.7        0.0        0.0        0.0        0.0        0.0        0.0        0.0        0.0        0.0        0.0        0.0        0.0     20.3       0.2      25.8      27.7      29.7    422.57
    31     8  2024    62     3     281.1     1.3      0.0    0.0    1.3    0.0      8.4      0.0   -9.90      0.0      0.0    100      0.2      0.2   100      0.2     0.2     100     19.7    1.70     -9      0      0      0      0    95.4    95.4      0     1.02      0.2      0.2      0.2   100    35.0    10.564     3.3    0.354    0.393     100        2.93    0.000    0.000     281.1    281.1    1.70   209.3     716.6     197.8     147.8      72.8      72.8      41.8    0.000     0.000     0.000     0.000     0.000    1.70     0.00    0.00      0   -9.90   -9.00       13.0       12.8       13.4       12.7       12.5       12.2       12.2       12.0       11.9       11.9       11.9       11.8        0.0        0.0        0.0        0.0        0.0        0.0        0.0        0.0        0.0        0.0        0.0        0.0      1.3       0.2      25.9      27.7      29.5    422.57
     1     9  2024    63     3     281.7     8.7      0.0    0.0    8.6    0.1      7.7      0.0   -9.90      0.0      0.0    100      0.2      0.2   100      0.2     0.2     100     19.5    1.71     -9      0      0      0      0    95.5    95.5      0     1.02      0.2      0.2      0.2   100    35.0    10.921     4.1    0.444    0.493     100        3.60    0.000    0.000     281.7    281.7    1.71   212.5     724.8     200.1     149.6      73.7      73.7      42.3    0.000     0.000     0.000     0.000     0.000    1.71     0.00    0.00      0   -9.90   -9.00       20.4       11.9       12.1       12.0       12.0       12.0       11.9       11.9       11.9       11.8       11.8       11.8        0.0        0.0        0.0        0.0        0.0        0.0        0.0        0.0        0.0        0.0        0.0        0.0      8.7       0.2      25.2      27.5      29.8    422.57
     2     9  2024    64     3     295.7    23.0      0.0    0.0   20.6    2.4      6.4      0.0   -9.90      0.0      0.0    100      0.2      0.2   100      0.2     0.2     100     19.3    1.73     -9      0      0      0      0    95.6    95.6      0     1.02      0.2      0.2      0.2   100    35.0    11.278     4.9    0.555    0.616     100        4.42    0.000    0.000     295.7    295.7    1.73   228.9     732.9     202.3     151.2      74.5      74.5      42.7    0.000     0.000     0.000     0.000     0.000    1.73     0.00    0.00      0   -9.90   -9.00       33.3       12.4       12.5       12.2       12.0       12.0       11.9       11.9       11.8       11.8       11.8       11.8        0.0        0.0        0.0        0.0        0.0        0.0        0.0        0.0        0.0        0.0        0.0        0.0     23.0       0.2      25.1      27.3      29.4    422.57
     3     9  2024    65     3     283.6     1.1      0.0    0.0    1.1    0.0     13.0      0.0   -9.90      0.0      0.0    100      0.2      0.2   100      0.2     0.2     100     20.1    1.75     -9      0      0      0      0    95.6    95.6      0     1.02      0.2      0.2      0.2   100    35.0    11.634     5.9    0.689    0.766     100        5.41    0.000    0.000     283.6    283.6    1.75   218.3     741.1     204.6     152.8      75.3      75.3      43.2    0.000     0.000     0.000     0.000     0.000    1.75     0.00    0.00      0   -9.90   -9.00       12.8       12.9       13.7       12.9       12.6       12.4       12.2       12.2       12.0       12.0       12.0       11.9        0.0        0.0        0.0        0.0        0.0        0.0        0.0        0.0        0.0        0.0        0.0        0.0      1.1       0.2      26.2      28.1      29.9    422.57
     4     9  2024    66     3     275.3     1.5      0.0    0.0    1.5    0.0      9.6      0.0   -9.90      0.0      0.0    100      0.2      0.2   100      0.2     0.2     100     20.1    1.77     -9      0      0      0      0    95.7    95.7      0     1.01      0.2      0.2      0.2   100    35.0    11.989     7.1    0.852    0.947     100        6.59    0.000    0.000     275.3    275.3    1.77   212.7     749.2     206.8     154.4      76.1      76.1      43.7    0.000     0.000     0.000     0.000     0.000    1.77     0.00    0.00      0   -9.90   -9.00       13.2       11.9       12.2       12.1       12.0       12.0       12.0       11.9       11.9       11.9       11.9       11.8        0.0        0.0        0.0        0.0        0.0        0.0        0.0        0.0        0.0        0.0        0.0        0.0      1.5       0.2      26.6      28.1      29.6    422.57
     5     9  2024    67     3     273.6     2.8      0.0    0.0    2.8    0.0      4.4      0.0   -9.90      0.0      0.0    100      0.2      0.2   100      0.2     0.2     100     20.4    1.79     -9      0      0      0      0    95.7    95.7      0     1.01      0.2      0.2      0.2   100    35.0    12.343     8.5    1.046    1.162     100        7.99    0.000    0.000     273.6    273.6    1.79   213.7     757.2     209.0     155.9      76.8      76.8      44.2    0.000     0.000     0.000     0.000     0.000    1.79     0.00    0.00      0   -9.90   -9.00       14.6       11.8       11.9       11.8       11.8       11.8       11.8       11.8       11.8       11.8       11.8       11.8        0.0        0.0        0.0        0.0        0.0        0.0        0.0        0.0        0.0        0.0        0.0        0.0      2.8       0.2      27.3      28.4      29.6    422.57
     6     9  2024    68     3     271.1     0.2      0.0    0.0    0.2    0.0      2.6      0.0   -9.90      0.0      0.0    100      0.2      0.2   100      0.2     0.2     100     20.1    1.81     -9      0      0      0      0    95.8    95.8      0     1.01      0.2      0.2      0.2   100    35.0    12.697    10.0    1.269    1.410     100        9.55    0.000    0.000     271.1    271.1    1.81   213.5     765.3     211.2     157.7      77.7      77.7      44.6    0.000     0.000     0.000     0.000     0.000    1.81     0.00    0.00      0   -9.90   -9.00       11.9       12.0       12.0       11.9       11.9       11.8       11.8       11.8       11.8       11.7       11.7       11.7        0.0        0.0        0.0        0.0        0.0        0.0        0.0        0.0        0.0        0.0        0.0        0.0      0.2       0.2      26.5      28.1      29.6    422.57
     7     9  2024    69     4     269.6     0.3      0.0    0.0    0.3    0.0      1.6      0.0   -9.90      0.0      0.0    100      0.2      0.2   100      0.2     0.2     100     20.0    1.83     -9      0      0      0      0    95.8    95.8      0     1.01      0.2      0.2      0.2   100    35.0    13.049    11.5    1.502    1.669     100       11.13    0.000    0.000     269.6    269.6    1.83   214.4     773.3     213.5     159.5      78.6      78.6      45.1    0.000     0.000     0.000     0.000     0.000    1.83     0.00    0.00      0   -9.90   -9.00       11.9       11.7       11.8       11.8       11.8       11.8       11.7       11.7       11.7       11.7       11.7       11.7        0.0        0.0        0.0        0.0        0.0        0.0        0.0        0.0        0.0        0.0        0.0        0.0      0.3       0.2      26.1      28.0      29.9    422.57
     8     9  2024    70     4     269.3     0.5      0.0    0.0    0.5    0.0      0.7      0.0   -9.90      0.0      0.0    100      0.2      0.2   100      0.2     0.2     100     20.2    1.85     -9      0      0      0      0    95.8    95.8      0     1.00      0.2      0.2      0.2   100    35.0    13.401    13.0    1.747    1.941     100       12.74    0.000    0.000     269.3    269.3    1.85   216.3     781.3     215.7     161.2      79.5      79.5      45.6    0.000     0.000     0.000     0.000     0.000    1.85     0.00    0.00      0   -9.90   -9.00       12.1       11.7       11.7       11.7       11.7       11.7       11.7       11.7       11.7       11.7       11.7       11.7        0.0        0.0        0.0        0.0        0.0        0.0        0.0        0.0        0.0        0.0        0.0        0.0      0.5       0.2      26.3      28.3      30.3    422.57
     9     9  2024    71     4     282.7    14.7      0.0    0.0   14.0    0.7      0.3      0.0   -9.90      0.0      0.0    100      0.1      0.1   100      0.1     0.1     100     18.7    1.87     -9      0      0      0      0    95.9    95.9      0     1.00      0.1      0.1      0.1   100    35.0    13.751    14.6    2.001    2.224     100       14.45    0.000    0.000     282.7    282.7    1.87   232.0     789.2     217.9     162.4      80.0      80.0      46.1    0.000     0.000     0.000     0.000     0.000    1.87     0.00    0.00      0   -9.90   -9.00       25.8       11.7       11.7       11.7       11.7       11.7       11.7       11.7       11.7       11.7       11.7       11.7        0.0        0.0        0.0        0.0        0.0        0.0        0.0        0.0        0.0        0.0        0.0        0.0     14.7       0.1      25.7      26.7      27.7    422.57
    10     9  2024    72     4     299.7    25.7      0.0    0.0   22.6    3.2      5.4      0.0   -9.90      0.0      0.0    100      0.2      0.2   100      0.2     0.2     100     19.1    1.89     -9      0      0      0      0    95.9    95.9      0     1.00      0.2      0.2      0.2   100    35.0    14.101    16.1    2.267    2.518     100       16.17    0.000    0.000     299.7    299.7    1.89   250.7     797.2     220.0     164.2      80.9      80.9      46.5    0.000     0.000     0.000     0.000     0.000    1.89     0.00    0.00      0   -9.90   -9.00       35.3       12.6       13.0       12.4       12.2       12.0       11.9       11.9       11.9       11.8       11.8       11.8        0.0        0.0        0.0        0.0        0.0        0.0        0.0        0.0        0.0        0.0        0.0        0.0     25.7       0.2      25.6      27.1      28.5    422.57
    11     9  2024    73     4     296.3    12.2      0.0    0.0   11.8    0.4     14.9      0.0   -9.90      0.0      0.0    100      0.2      0.2   100      0.2     0.2     100     19.1    1.90     -9      0      0      0      0    95.9    95.9      0     0.99      0.2      0.2      0.2   100    35.0    14.449    17.6    2.542    2.825     100       17.87    0.000    0.000     296.3    296.3    1.90   249.0     805.1     222.2     166.1      81.9      81.9      47.0    0.000     0.000     0.000     0.000     0.000    1.90     0.00    0.00      0   -9.90   -9.00       24.3       12.9       13.9       13.1       12.7       12.5       12.3       12.2       12.1       12.0       12.0       11.9        0.0        0.0        0.0        0.0        0.0        0.0        0.0        0.0        0.0        0.0        0.0        0.0     12.2       0.2      25.1      27.1      29.1    422.57
    12     9  2024    74     4     283.1     2.4      0.0    0.0    2.4    0.0     15.4      0.0   -9.90      0.0      0.0    100      0.2      0.2   100      0.2     0.2     100     19.3    1.92     -9      0      0      0      0    95.9    95.9      0     0.99      0.2      0.2      0.2   100    35.0    14.797    19.1    2.828    3.143     100       19.61    0.000    0.000     283.1    283.1    1.92   237.9     813.0     224.4     167.6      82.7      82.7      47.5    0.000     0.000     0.000     0.000     0.000    1.92     0.00    0.00      0   -9.90   -9.00       14.4       12.6       13.0       12.6       12.4       12.3       12.2       12.2       12.0       12.0       12.0       11.9        0.0        0.0        0.0        0.0        0.0        0.0        0.0        0.0        0.0        0.0        0.0        0.0      2.4       0.2      25.4      27.3      29.2    422.57
    13     9  2024    75     4     276.4     2.6      0.0    0.0    2.6    0.0      9.2      0.0   -9.90      0.0      0.0    100      0.2      0.2   100      0.2     0.2     100     19.8    1.94     -9      0      0      0      0    95.9    95.9      0     0.99      0.2      0.2      0.2   100    35.0    15.144    20.6    3.125    3.472     100       21.34    0.000    0.000     276.4    276.4    1.94   233.9     820.8     226.6     169.4      83.5      83.5      47.9    0.000     0.000     0.000     0.000     0.000    1.94     0.00    0.00      0   -9.90   -9.00       14.5       12.0       12.1       12.0       12.0       12.0       11.9       11.9       11.9       11.9       11.8       11.8        0.0        0.0        0.0        0.0        0.0        0.0        0.0        0.0        0.0        0.0        0.0        0.0      2.6       0.2      25.6      27.9      30.2    422.57
    14     9  2024    76     4     278.1     6.4      0.0    0.0    6.4    0.0      4.5      0.0   -9.90      0.0      0.0    100      0.2      0.2   100      0.2     0.2     100     19.2    1.96     -9      0     -9      0      0    95.3    95.3      0     0.98      0.2      0.2      0.2   100    35.0    15.486    22.2    3.431    3.812     100       23.13    0.000    0.000     278.1    278.1    1.96   238.0     828.6     228.7     170.8      84.2      84.2      48.4    0.000     0.000     0.000     0.000     0.000    1.96     0.00    0.00      0   -9.90   -9.00       18.4       12.0       12.0       11.9       11.9       11.8       11.8       11.8       11.8       11.8       11.8       11.8        0.0        0.0        0.0        0.0        0.0        0.0        0.0        0.0        0.0        0.0        0.0        0.0      6.4       0.2      25.5      27.2      29.0    422.57
    15     9  2024    77     4     284.4    11.0      0.0    0.0   10.7    0.3      4.2      0.0   -9.90      0.0      0.0    100      0.2      0.2   100      0.2     0.2     100     19.7    1.98     -9      0     -9      0      0    94.6    94.6      0     0.96      0.2      0.2      0.2   100    35.0    15.823    23.7    3.746    4.162     100       24.91    0.000    0.000     284.4    284.4    1.98   246.4     836.4     230.9     172.6      85.1      85.1      48.8    0.000     0.000     0.000     0.000     0.000    1.98     0.00    0.00      0   -9.90   -9.00       23.2       12.2       12.3       12.1       12.0       11.9       11.9       11.8       11.8       11.8       11.8       11.8        0.0        0.0        0.0        0.0        0.0        0.0        0.0        0.0        0.0        0.0        0.0        0.0     11.0       0.2      25.6      27.7      29.9    422.57
    16     9  2024    78     4     285.4     8.3      0.0    0.0    8.2    0.1      7.1      0.0   -9.90      0.0      0.0    100      0.1      0.1   100      0.1     0.1     100     18.6    2.00     -9      0     -9      0      0    93.9    93.9      0     0.95      0.1      0.1      0.1   100    35.0    16.155    25.2    4.070    4.523     100       26.81    0.000    0.000     285.4    285.4    2.00   249.5     844.2     233.0     173.7      85.6      85.6      49.3    0.000     0.000     0.000     0.000     0.000    2.00     0.00    0.00      0   -9.90   -9.00       20.9       12.5       12.8       12.4       12.2       12.1       12.0       11.9       11.9       11.8       11.8       11.8        0.0        0.0        0.0        0.0        0.0        0.0        0.0        0.0        0.0        0.0        0.0        0.0      8.3       0.1      25.5      26.6      27.6    422.57
    17     9  2024    79     4     308.3    39.8      0.0    0.0   31.6    8.2      8.5      0.0   -9.90      0.0      0.0    100      0.1      0.1   100      0.1     0.1     100     17.9    2.01     -9      0     -9      0      0    93.0    93.0      0     0.93      0.1      0.1      0.1   100    35.0    16.481    26.7    4.403    4.892     100       28.77    0.000    0.000     308.3    308.3    2.01   274.5     852.0     235.2     175.2      86.3      86.3      49.8    0.000     0.000     0.000     0.000     0.000    2.01     0.00    0.00      0   -9.90   -9.00       42.2       13.6       12.6       12.3       12.3       12.1       12.0       12.0       11.9       11.9       11.9       11.8        0.0        0.0        0.0        0.0        0.0        0.0        0.0        0.0        0.0        0.0        0.0        0.0     39.8       0.1      25.1      25.9      26.8    422.57
    18     9  2024    80     4     315.6    33.7      0.0    0.0   27.9    5.8     20.4      0.0   -9.90      0.0      0.0    100      0.2      0.2   100      0.2     0.2     100     19.1    2.03     -9      0     -9      0      0    92.0    92.0      0     0.91      0.2      0.2      0.2   100    35.0    16.801    28.2    4.744    5.271     100       30.60    0.000    0.000     315.6    315.6    2.03   283.4     859.7     237.3     177.4      87.5      87.5      50.2    0.000     0.000     0.000     0.000     0.000    2.03     0.00    0.00      0   -9.90   -9.00       39.9       12.7       14.4       13.5       13.0       12.7       12.5       12.3       12.2       12.1       12.1       12.0        0.0        0.0        0.0        0.0        0.0        0.0        0.0        0.0        0.0        0.0        0.0        0.0     33.7       0.2      25.1      27.1      29.2    422.57
    19     9  2024    81     4     295.7     6.5      0.0    0.0    6.5    0.0     26.2      0.0   -9.90      0.0      0.0    100      0.2      0.2   100      0.2     0.2     100     19.3    2.05     -9      0     -9      0      0    90.9    90.9      0     0.89      0.2      0.2      0.2   100    35.0    17.113    29.8    5.092    5.658     100       32.45    0.000    0.000     295.7    295.7    2.05   265.6     867.4     239.4     178.9      88.2      88.2      50.7    0.000     0.000     0.000     0.000     0.000    2.05     0.00    0.00      0   -9.90   -9.00       18.5       12.8       14.2       13.5       13.1       12.8       12.6       12.4       12.3       12.2       12.1       12.1        0.0        0.0        0.0        0.0        0.0        0.0        0.0        0.0        0.0        0.0        0.0        0.0      6.5       0.2      25.5      27.3      29.2    422.57
    20     9  2024    82     4     281.9     3.4      0.0    0.0    3.4    0.0     17.0      0.0   -9.90      0.0      0.0    100      0.2      0.2   100      0.2     0.2     100     19.9    2.07     -9      0     -9      0      0    89.6    89.6      0     0.87      0.2      0.2      0.2   100    35.0    17.418    31.3    5.448    6.053     100       34.28    0.000    0.000     281.9    281.9    2.07   254.3     875.1     241.5     180.6      89.1      89.1      51.1    0.000     0.000     0.000     0.000     0.000    2.07     0.00    0.00      0   -9.90   -9.00       15.5       12.3       12.5       12.4       12.3       12.2       12.1       12.1       12.0       12.0       12.0       11.9        0.0        0.0        0.0        0.0        0.0        0.0        0.0        0.0        0.0        0.0        0.0        0.0      3.4       0.2      25.8      27.9      30.0    422.57
    21     9  2024    83     4     278.4     4.9      0.0    0.0    4.9    0.0      8.2      0.0   -9.90      0.0      0.0    100      0.2      0.2   100      0.2     0.2     100     19.6    2.09     -9      0     -9      0      0    88.2    88.2      0     0.84      0.2      0.2      0.2   100    35.0    17.714    32.8    5.810    6.455     100       36.14    0.000    0.000     278.4    278.4    2.09   253.3     882.8     243.7     182.0      89.8      89.8      51.6    0.000     0.000     0.000     0.000     0.000    2.09     0.00    0.00      0   -9.90   -9.00       17.0       12.1       12.1       12.0       12.0       11.9       11.9       11.9       11.9       11.8       11.8       11.8        0.0        0.0        0.0        0.0        0.0        0.0        0.0        0.0        0.0        0.0        0.0        0.0      4.9       0.2      25.8      27.6      29.5    422.57
    22     9  2024    84     4     295.1    24.8      0.0    0.0   21.9    2.9      5.0      0.0   -9.90      0.0      0.0    100      0.2      0.2   100      0.2     0.2     100     19.2    2.10     -9      0     -9      0      0    86.6    86.6      0     0.82      0.2      0.2      0.2   100    35.0    18.001    34.3    6.177    6.864     100       38.04    0.000    0.000     295.1    295.1    2.10   272.2     890.4     245.8     183.5      90.5      90.5      52.0    0.000     0.000     0.000     0.000     0.000    2.10     0.00    0.00      0   -9.90   -9.00       34.5       12.2       12.2       12.0       11.9       11.9       11.9       11.8       11.8       11.8       11.8       11.8        0.0        0.0        0.0        0.0        0.0        0.0        0.0        0.0        0.0        0.0        0.0        0.0     24.8       0.2      25.6      27.2      28.9    422.57
    23     9  2024    85     4     296.4    14.2      0.0    0.0   13.5    0.6     12.1      0.0   -9.90      0.0      0.0    100      0.2      0.2   100      0.2     0.2     100     19.7    2.12     -9      0     -9      0      0    84.8    84.8      0     0.79      0.2      0.2      0.2   100    35.0    18.277    35.8    6.550    7.278     100       39.86    0.000    0.000     296.4    296.4    2.12   275.3     898.0     247.9     185.3      91.4      91.4      52.5    0.000     0.000     0.000     0.000     0.000    2.12     0.00    0.00      0   -9.90   -9.00       26.2       12.9       13.7       13.0       12.6       12.4       12.2       12.1       12.0       12.0       11.9       11.9        0.0        0.0        0.0        0.0        0.0        0.0        0.0        0.0        0.0        0.0        0.0        0.0     14.2       0.2      25.5      27.7      29.9    422.57
    24     9  2024    86     4     285.2     3.9      0.0    0.0    3.9    0.0     14.9      0.0   -9.90      0.0      0.0    100      0.2      0.2   100      0.2     0.2     100     19.8    2.14     -9      0     -9      0      0    82.8    82.8      0     0.76      0.2      0.2      0.2   100    35.0    18.542    37.4    6.927    7.697     100       41.69    0.000    0.000     285.2    285.2    2.14   266.2     905.6     250.0     186.9      92.2      92.2      52.9    0.000     0.000     0.000     0.000     0.000    2.14     0.00    0.00      0   -9.90   -9.00       16.1       12.7       13.1       12.7       12.5       12.3       12.2       12.1       12.0       12.0       12.0       11.9        0.0        0.0        0.0        0.0        0.0        0.0        0.0        0.0        0.0        0.0        0.0        0.0      3.9       0.2      25.7      27.8      30.0    422.57
    25     9  2024    87     4     292.1    18.2      0.0    0.0   16.9    1.3     10.0      0.0   -9.90      0.0      0.0    100      0.1      0.1   100      0.1     0.1     100     18.2    2.16     -9      0     -9      0      0    80.5    80.5      0     0.72      0.1      0.1      0.1   100    35.0    18.795    38.9    7.307    8.119     100       43.63    0.000    0.000     292.1    292.1    2.16   275.3     913.2     252.1     188.0      92.7      92.7      53.4    0.000     0.000     0.000     0.000     0.000    2.16     0.00    0.00      0   -9.90   -9.00       29.3       12.2       12.2       12.1       12.1       12.0       12.0       11.9       11.9       11.9       11.9       11.8        0.0        0.0        0.0        0.0        0.0        0.0        0.0        0.0        0.0        0.0        0.0        0.0     18.2       0.2      24.9      26.2      27.5    422.57
[...]
    10    12  2025    -9     0     263.7     0.0      0.0    0.0    0.0    0.0      0.0      0.0   -9.90      0.3      0.2     77      0.0      0.0   100      0.3     0.2      77     18.4    2.28     -9     -9     -9      0     -9     0.0     0.0      0    -9.00      0.0      0.0      0.0   100    35.1    20.220    48.0    9.706   10.784     100       52.31    0.000    0.000     263.7    263.7    2.28   261.7     965.7     266.5     199.4      98.6      98.4      56.5    0.000     0.000     0.000     0.000     0.000    2.28     0.00    0.00      0   -9.90   -9.00        6.7       11.7       11.7       11.7       11.7       11.7       11.7       11.7       11.7       11.7       11.7       11.7        0.0        0.0        0.0        0.0        0.0        0.0        0.0        0.0        0.0        0.0        0.0        0.0      0.0       0.3      22.8      26.5      30.1    424.57
    11    12  2025    -9     0     263.5     0.0      0.0    0.0    0.0    0.0      0.0      0.0   -9.90      0.3      0.2     71      0.0      0.0   100      0.3     0.2      71     17.8    2.28     -9     -9     -9      0     -9     0.0     0.0      0    -9.00      0.0      0.0      0.0   100    35.1    20.220    48.0    9.706   10.784     100       52.31    0.000    0.000     263.5    263.5    2.28   261.4     965.7     266.5     199.4      98.6      98.4      56.5    0.000     0.000     0.000     0.000     0.000    2.28     0.00    0.00      0   -9.90   -9.00        6.5       11.7       11.7       11.7       11.7       11.7       11.7       11.7       11.7       11.7       11.7       11.7        0.0        0.0        0.0        0.0        0.0        0.0        0.0        0.0        0.0        0.0        0.0        0.0      0.0       0.3      21.7      25.8      29.8    424.57
    12    12  2025    -9     0     263.3     0.0      0.0    0.0    0.0    0.0      0.0      0.0   -9.90      0.3      0.2     66      0.0      0.0   100      0.3     0.2      66     17.3    2.28     -9     -9     -9      0     -9     0.0     0.0      0    -9.00      0.0      0.0      0.0   100    35.1    20.220    48.0    9.706   10.784     100       52.31    0.000    0.000     263.3    263.3    2.28   261.2     965.7     266.5     199.4      98.7      98.4      56.5    0.000     0.000     0.000     0.000     0.000    2.28     0.00    0.00      0   -9.90   -9.00        6.3       11.7       11.7       11.7       11.7       11.7       11.7       11.7       11.7       11.7       11.7       11.7        0.0        0.0        0.0        0.0        0.0        0.0        0.0        0.0        0.0        0.0        0.0        0.0      0.0       0.3      20.9      25.3      29.7    424.57
    13    12  2025    -9     0     263.1     0.0      0.0    0.0    0.0    0.0      0.0      0.0   -9.90      0.3      0.2     61      0.0      0.0   100      0.3     0.2      61     16.7    2.28     -9     -9     -9      0     -9     0.0     0.0      0    -9.00      0.0      0.0      0.0   100    35.1    20.220    48.0    9.706   10.784     100       52.31    0.000    0.000     263.1    263.1    2.28   261.1     965.7     266.5     199.4      98.5      98.4      56.5    0.000     0.000     0.000     0.000     0.000    2.28     0.00    0.00      0   -9.90   -9.00        6.1       11.7       11.7       11.7       11.7       11.7       11.7       11.7       11.7       11.7       11.7       11.7        0.0        0.0        0.0        0.0        0.0        0.0        0.0        0.0        0.0        0.0        0.0        0.0      0.0       0.3      21.0      24.7      28.4    424.57
    14    12  2025    -9     0     263.0     0.0      0.0    0.0    0.0    0.0      0.0      0.0   -9.90      0.3      0.2     58      0.0      0.0   100      0.3     0.2      58     14.5    2.28     -9     -9     -9      0     -9     0.0     0.0      0    -9.00      0.0      0.0      0.0   100    35.1    20.220    48.0    9.706   10.784     100       52.31    0.000    0.000     263.0    263.0    2.28   260.9     965.7     266.5     199.4      98.4      98.4      56.5    0.000     0.000     0.000     0.000     0.000    2.28     0.00    0.00      0   -9.90   -9.00        6.0       11.7       11.7       11.7       11.7       11.7       11.7       11.7       11.7       11.7       11.7       11.7        0.0        0.0        0.0        0.0        0.0        0.0        0.0        0.0        0.0        0.0        0.0        0.0      0.0       0.2      19.0      22.5      25.9    424.57
    15    12  2025    -9     0     262.8     0.0      0.0    0.0    0.0    0.0      0.0      0.0   -9.90      0.3      0.2     55      0.0      0.0   100      0.3     0.2      55     14.7    2.28     -9     -9     -9      0     -9     0.0     0.0      0    -9.00      0.0      0.0      0.0   100    35.1    20.220    48.0    9.706   10.784     100       52.31    0.000    0.000     262.8    262.8    2.28   260.8     965.7     266.5     199.4      98.6      98.4      56.5    0.000     0.000     0.000     0.000     0.000    2.28     0.00    0.00      0   -9.90   -9.00        5.8       11.7       11.7       11.7       11.7       11.7       11.7       11.7       11.7       11.7       11.7       11.7        0.0        0.0        0.0        0.0        0.0        0.0        0.0        0.0        0.0        0.0        0.0        0.0      0.0       0.3      18.3      22.7      27.0    424.57
    16    12  2025    -9     0     262.6     0.0      0.0    0.0    0.0    0.0      0.0      0.0   -9.90      0.3      0.1     52      0.0      0.0   100      0.3     0.1      52     16.6    2.28     -9     -9     -9      0     -9     0.0     0.0      0    -9.00      0.0      0.0      0.0   100    35.1    20.220    48.0    9.706   10.784     100       52.31    0.000    0.000     262.6    262.6    2.28   260.6     965.7     266.5     199.4      98.5      98.4      56.5    0.000     0.000     0.000     0.000     0.000    2.28     0.00    0.00      0   -9.90   -9.00        5.7       11.7       11.7       11.7       11.7       11.7       11.7       11.7       11.7       11.7       11.7       11.7        0.0        0.0        0.0        0.0        0.0        0.0        0.0        0.0        0.0        0.0        0.0        0.0      0.0       0.3      20.9      24.6      28.3    424.57
    17    12  2025    -9     0     262.5     0.0      0.0    0.0    0.0    0.0      0.0      0.0   -9.90      0.3      0.1     49      0.0      0.0   100      0.3     0.1      49     16.5    2.28     -9     -9     -9      0     -9     0.0     0.0      0    -9.00      0.0      0.0      0.0   100    35.1    20.220    48.0    9.706   10.784     100       52.31    0.000    0.000     262.5    262.5    2.28   260.5     965.7     266.5     199.4      98.4      98.4      56.5    0.000     0.000     0.000     0.000     0.000    2.28     0.00    0.00      0   -9.90   -9.00        5.5       11.7       11.7       11.7       11.7       11.7       11.7       11.7       11.7       11.7       11.7       11.7        0.0        0.0        0.0        0.0        0.0        0.0        0.0        0.0        0.0        0.0        0.0        0.0      0.0       0.2      21.3      24.5      27.6    424.57
    18    12  2025    -9     0     262.4     0.0      0.0    0.0    0.0    0.0      0.0      0.0   -9.90      0.3      0.1     47      0.0      0.0   100      0.3     0.1      47     15.5    2.28     -9     -9     -9      0     -9     0.0     0.0      0    -9.00      0.0      0.0      0.0   100    35.1    20.220    48.0    9.706   10.784     100       52.31    0.000    0.000     262.4    262.4    2.28   260.3     965.7     266.5     199.4      98.4      98.4      56.5    0.000     0.000     0.000     0.000     0.000    2.28     0.00    0.00      0   -9.90   -9.00        5.4       11.7       11.7       11.7       11.7       11.7       11.7       11.7       11.7       11.7       11.7       11.7        0.0        0.0        0.0        0.0        0.0        0.0        0.0        0.0        0.0        0.0        0.0        0.0      0.0       0.2      20.2      23.5      26.8    424.57
    19    12  2025    -9     0     262.3     0.0      0.0    0.0    0.0    0.0      0.0      0.0   -9.90      0.3      0.1     45      0.0      0.0   100      0.3     0.1      45     15.4    2.28     -9     -9     -9      0     -9     0.0     0.0      0    -9.00      0.0      0.0      0.0   100    35.1    20.220    48.0    9.706   10.784     100       52.31    0.000    0.000     262.3    262.3    2.28   260.2     965.7     266.5     199.4      98.6      98.4      56.5    0.000     0.000     0.000     0.000     0.000    2.28     0.00    0.00      0   -9.90   -9.00        5.3       11.7       11.7       11.7       11.7       11.7       11.7       11.7       11.7       11.7       11.7       11.7        0.0        0.0        0.0        0.0        0.0        0.0        0.0        0.0        0.0        0.0        0.0        0.0      0.0       0.3      18.9      23.4      27.8    424.57
    20    12  2025    -9     0     262.1     0.0      0.0    0.0    0.0    0.0      0.0      0.0   -9.90      0.3      0.1     43      0.0      0.0   100      0.3     0.1      43     16.7    2.28     -9     -9     -9      0     -9     0.0     0.0      0    -9.00      0.0      0.0      0.0   100    35.1    20.220    48.0    9.706   10.784     100       52.31    0.000    0.000     262.1    262.1    2.28   260.1     965.7     266.5     199.4      98.6      98.4      56.5    0.000     0.000     0.000     0.000     0.000    2.28     0.00    0.00      0   -9.90   -9.00        5.1       11.7       11.7       11.7       11.7       11.7       11.7       11.7       11.7       11.7       11.7       11.7        0.0        0.0        0.0        0.0        0.0        0.0        0.0        0.0        0.0        0.0        0.0        0.0      0.0       0.3      20.4      24.7      29.1    424.57
    21    12  2025    -9     0     262.0     0.0      0.0    0.0    0.0    0.0      0.0      0.0   -9.90      0.3      0.1     41      0.0      0.0   100      0.3     0.1      41     16.7    2.28     -9     -9     -9      0     -9     0.0     0.0      0    -9.00      0.0      0.0      0.0   100    35.1    20.220    48.0    9.706   10.784     100       52.31    0.000    0.000     262.0    262.0    2.28   260.0     965.7     266.5     199.4      98.7      98.4      56.5    0.000     0.000     0.000     0.000     0.000    2.28     0.00    0.00      0   -9.90   -9.00        5.0       11.7       11.7       11.7       11.7       11.7       11.7       11.7       11.7       11.7       11.7       11.7        0.0        0.0        0.0        0.0        0.0        0.0        0.0        0.0        0.0        0.0        0.0        0.0      0.0       0.3      20.1      24.7      29.3    424.57
    22    12  2025    -9     0     261.9     0.0      0.0    0.0    0.0    0.0      0.0      0.0   -9.90      0.3      0.1     39      0.0      0.0   100      0.3     0.1      39     16.6    2.28     -9     -9     -9      0     -9     0.0     0.0      0    -9.00      0.0      0.0      0.0   100    35.1    20.220    48.0    9.706   10.784     100       52.31    0.000    0.000     261.9    261.9    2.28   259.8     965.7     266.5     199.4      98.7      98.4      56.5    0.000     0.000     0.000     0.000     0.000    2.28     0.00    0.00      0   -9.90   -9.00        4.9       11.7       11.7       11.7       11.7       11.7       11.7       11.7       11.7       11.7       11.7       11.7        0.0        0.0        0.0        0.0        0.0        0.0        0.0        0.0        0.0        0.0        0.0        0.0      0.0       0.3      20.2      24.6      29.0    424.57
    23    12  2025    -9     0     261.8     0.0      0.0    0.0    0.0    0.0      0.0      0.0   -9.90      0.3      0.1     37      0.0      0.0   100      0.3     0.1      37     16.6    2.28     -9     -9     -9      0     -9     0.0     0.0      0    -9.00      0.0      0.0      0.0   100    35.1    20.220    48.0    9.706   10.784     100       52.31    0.000    0.000     261.8    261.8    2.28   259.7     965.7     266.5     199.4      98.6      98.4      56.5    0.000     0.000     0.000     0.000     0.000    2.28     0.00    0.00      0   -9.90   -9.00        4.8       11.7       11.7       11.7       11.7       11.7       11.7       11.7       11.7       11.7       11.7       11.7        0.0        0.0        0.0        0.0        0.0        0.0        0.0        0.0        0.0        0.0        0.0        0.0      0.0       0.3      20.4      24.6      28.8    424.57
    24    12  2025    -9     0     261.7     0.0      0.0    0.0    0.0    0.0      0.0      0.0   -9.90      0.3      0.1     36      0.0      0.0   100      0.3     0.1      36     17.1    2.28     -9     -9     -9      0     -9     0.0     0.0      0    -9.00      0.0      0.0      0.0   100    35.1    20.220    48.0    9.706   10.784     100       52.31    0.000    0.000     261.7    261.7    2.28   259.6     965.7     266.5     199.4      98.5      98.4      56.5    0.000     0.000     0.000     0.000     0.000    2.28     0.00    0.00      0   -9.90   -9.00        4.6       11.7       11.7       11.7       11.7       11.7       11.7       11.7       11.7       11.7       11.7       11.7        0.0        0.0        0.0        0.0        0.0        0.0        0.0        0.0        0.0        0.0        0.0        0.0      0.0       0.3      21.6      25.1      28.5    424.57
    25    12  2025    -9     0     261.5     0.0      0.0    0.0    0.0    0.0      0.0      0.0   -9.90      0.3      0.1     34      0.0      0.0   100      0.3     0.1      34     16.8    2.28     -9     -9     -9      0     -9     0.0     0.0      0    -9.00      0.0      0.0      0.0   100    35.1    20.220    48.0    9.706   10.784     100       52.31    0.000    0.000     261.5    261.5    2.28   259.5     965.7     266.5     199.4      98.7      98.4      56.5    0.000     0.000     0.000     0.000     0.000    2.28     0.00    0.00      0   -9.90   -9.00        4.5       11.7       11.7       11.7       11.7       11.7       11.7       11.7       11.7       11.7       11.7       11.7        0.0        0.0        0.0        0.0        0.0        0.0        0.0        0.0        0.0        0.0        0.0        0.0      0.0       0.3      20.2      24.8      29.4    424.57
    26    12  2025    -9     0     261.4     0.0      0.0    0.0    0.0    0.0      0.0      0.0   -9.90      0.3      0.1     33      0.0      0.0   100      0.3     0.1      33     16.4    2.28     -9     -9     -9      0     -9     0.0     0.0      0    -9.00      0.0      0.0      0.0   100    35.1    20.220    48.0    9.706   10.784     100       52.31    0.000    0.000     261.4    261.4    2.28   259.4     965.7     266.5     199.4      98.6      98.4      56.5    0.000     0.000     0.000     0.000     0.000    2.28     0.00    0.00      0   -9.90   -9.00        4.4       11.7       11.7       11.7       11.7       11.7       11.7       11.7       11.7       11.7       11.7       11.7        0.0        0.0        0.0        0.0        0.0        0.0        0.0        0.0        0.0        0.0        0.0        0.0      0.0       0.3      20.2      24.4      28.5    424.57
    27    12  2025    -9     0     261.3     0.0      0.0    0.0    0.0    0.0      0.0      0.0   -9.90      0.3      0.1     34      0.0      0.0   100      0.3     0.1      34     15.9    2.28     -9     -9     -9      0     -9     0.0     0.0      0    -9.00      0.0      0.0      0.0   100    35.1    20.220    48.0    9.706   10.784     100       52.31    0.000    0.000     261.3    261.3    2.28   259.3     965.7     266.5     199.4      98.7      98.4      56.5    0.000     0.000     0.000     0.000     0.000    2.28     0.00    0.00      0   -9.90   -9.00        4.3       11.7       11.7       11.7       11.7       11.7       11.7       11.7       11.7       11.7       11.7       11.7        0.0        0.0        0.0        0.0        0.0        0.0        0.0        0.0        0.0        0.0        0.0        0.0      0.0       0.3      19.2      23.9      28.6    424.57
    28    12  2025    -9     0     261.2     0.0      0.0    0.0    0.0    0.0      0.0      0.0   -9.90      0.3      0.1     31      0.0      0.0   100      0.3     0.1      31     16.7    2.28     -9     -9     -9      0     -9     0.0     0.0      0    -9.00      0.0      0.0      0.0   100    35.1    20.220    48.0    9.706   10.784     100       52.31    0.000    0.000     261.2    261.2    2.28   259.2     965.7     266.5     199.4      98.7      98.4      56.5    0.000     0.000     0.000     0.000     0.000    2.28     0.00    0.00      0   -9.90   -9.00        4.2       11.7       11.7       11.7       11.7       11.7       11.7       11.7       11.7       11.7       11.7       11.7        0.0        0.0        0.0        0.0        0.0        0.0        0.0        0.0        0.0        0.0        0.0        0.0      0.0       0.3      19.8      24.7      29.5    424.57
    29    12  2025    -9     0     261.1     0.0      0.0    0.0    0.0    0.0      0.0      0.0   -9.90      0.3      0.1     30      0.0      0.0   100      0.3     0.1      30     17.3    2.28     -9     -9     -9      0     -9     0.0     0.0      0    -9.00      0.0      0.0      0.0   100    35.1    20.220    48.0    9.706   10.784     100       52.31    0.000    0.000     261.1    261.1    2.28   259.1     965.7     266.5     199.4      98.8      98.4      56.5    0.000     0.000     0.000     0.000     0.000    2.28     0.00    0.00      0   -9.90   -9.00        4.1       11.7       11.7       11.7       11.7       11.7       11.7       11.7       11.7       11.7       11.7       11.7        0.0        0.0        0.0        0.0        0.0        0.0        0.0        0.0        0.0        0.0        0.0        0.0      0.0       0.3      20.7      25.7      30.8    424.57
    30    12  2025    -9     0     261.0     0.0      0.0    0.0    0.0    0.0      0.0      0.0   -9.90      0.3      0.1     29      0.0      0.0   100      0.3     0.1      29     17.6    2.28     -9     -9     -9      0     -9     0.0     0.0      0    -9.00      0.0      0.0      0.0   100    35.1    20.220    48.0    9.706   10.784     100       52.31    0.000    0.000     261.0    261.0    2.28   259.0     965.7     266.5     199.4      98.8      98.4      56.5    0.000     0.000     0.000     0.000     0.000    2.28     0.00    0.00      0   -9.90   -9.00        4.0       11.7       11.7       11.7       11.7       11.7       11.7       11.7       11.7       11.7       11.7       11.7        0.0        0.0        0.0        0.0        0.0        0.0        0.0        0.0        0.0        0.0        0.0        0.0      0.0       0.3      21.2      26.1      31.1    424.57
    31    12  2025    -9     0     260.9     0.0      0.0    0.0    0.0    0.0      0.0      0.0   -9.90      0.4      0.1     28      0.0      0.0   100      0.4     0.1      28     17.4    2.28     -9     -9     -9      0     -9     0.0     0.0      0    -9.00      0.0      0.0      0.0   100    35.1    20.220    48.0    9.706   10.784     100       52.31    0.000    0.000     260.9    260.9    2.28   258.9     965.7     266.5     199.4      98.8      98.4      56.5    0.000     0.000     0.000     0.000     0.000    2.28     0.00    0.00      0   -9.90   -9.00        3.9       11.7       11.7       11.7       11.7       11.7       11.7       11.7       11.7       11.7       11.7       11.7        0.0        0.0        0.0        0.0        0.0        0.0        0.0        0.0        0.0        0.0        0.0        0.0      0.0       0.3      20.9      26.2      31.4    424.57
