AquaCrop 7.1 (August 2023) - Output created on (date) : 16-01-2026   at (time) : 12:17:28

    RunNr     Day1   Month1    Year1     Rain      ETo       GD     CO2      Irri   Infilt   Runoff    Drain   Upflow        E     E/Ex       Tr      TrW   Tr/Trx    SaltIn   SaltOut    SaltUp  SaltProf     Cycle   SaltStr  FertStr  WeedStr  TempStr   ExpStr   StoStr  BioMass  Brelative   HI    Y(dry)  Y(fresh)    WPet      Bin     Bout     DayN   MonthN    YearN
                                           mm       mm  degC.day    ppm        mm       mm       mm       mm       mm       mm        %       mm       mm        %    ton/ha    ton/ha    ton/ha    ton/ha      days       %        %        %        %        %        %    ton/ha        %       %    ton/ha   ton/ha    kg/m3   ton/ha   ton/ha
   Tot(1)        1        7     2011   1133.3   2445.7   3125.9   391.85    561.1   1127.4      5.9      0.0      0.0    891.9       52    844.7    844.7      100     0.000     0.000     0.000     0.000       89        0       30        0        0        0        0    19.905      100     48.2    9.589   10.655     0.80    0.000    0.000       31       12     2011  cluster_355.PRM
   Tot(2)        1        7     2012   1110.2   2436.1   3131.9   394.06    453.2   1102.5      7.8      5.1      0.0    795.2       46    812.9    812.9      100     0.000     0.000     0.000     0.000       89        0       30        0        0        1        0    19.642       98     48.2    9.463   10.514     0.83    0.000    0.000       31       12     2012  cluster_355.PRM
   Tot(3)        1        7     2013   1027.6   2430.1   3130.1   396.74    636.2   1024.1      3.6      0.0      0.0    875.0       51    830.2    830.2      100     0.000     0.000     0.000     0.000       89        0       30        0        0        1        0    19.935      100     48.2    9.604   10.671     0.82    0.000    0.000       31       12     2013  cluster_355.PRM
   Tot(4)        1        7     2014   1109.1   2413.8   3134.6   398.81    570.7   1102.9      6.2      2.5      0.0    883.9       52    826.6    826.6      100     0.000     0.000     0.000     0.000       89        0       30        0        0        0        0    19.932       99     48.2    9.603   10.669     0.82    0.000    0.000       31       12     2014  cluster_355.PRM
   Tot(5)        1        7     2015   1038.0   2451.8   3123.5   401.01    597.7   1033.7      4.3      0.0      0.0    841.3       49    843.5    843.5      100     0.000     0.000     0.000     0.000       89        0       30        0        0        0        0    19.993      100     48.1    9.626   10.695     0.80    0.000    0.000       31       12     2015  cluster_355.PRM
