AquaCrop 7.1 (August 2023) - Output created on (date) : 16-01-2026   at (time) : 12:17:28

   Run:   1
   Day Month  Year   DAP Stage   WC(2.30)   Rain     Irri   Surf   Infilt   RO    Drain       CR    Zgwt       Ex       E     E/Ex     Trx       Tr  Tr/Trx    ETx      ET  ET/ETx      GD       Z     StExp  StSto  StSen StSalt StWeed   CC      CCw     StTr  Kc(Tr)     Trx       Tr      TrW  Tr/Trx   WP    Biomass     HI    Y(dry)  Y(fresh)  Brelative    WPet      Bin     Bout  WC(2.30) Wr(2.30)     Z       Wr    Wr(SAT)    Wr(FC)   Wr(exp)   Wr(sto)   Wr(sen)   Wr(PWP)    SaltIn    SaltOut   SaltUp   Salt(2.30)  SaltZ     Z       ECe    ECsw   StSalt  Zgwt    ECgw       WC01       WC 2       WC 3       WC 4       WC 5       WC 6       WC 7       WC 8       WC 9       WC10       WC11       WC12      ECe01      ECe 2      ECe 3      ECe 4      ECe 5      ECe 6      ECe 7      ECe 8      ECe 9      ECe10      ECe11      ECe12     Rain       ETo      Tmin      Tavg      Tmax      CO2
                                      mm      mm       mm     mm     mm     mm       mm       mm      m        mm       mm     %        mm       mm    %        mm      mm       %  degC-day     m       %      %      %      %      %      %       %       %       -        mm       mm       mm    %     g/m2    ton/ha      %    ton/ha   ton/ha       %       kg/m3   ton/ha   ton/ha      mm       mm       m       mm        mm        mm        mm        mm        mm         mm    ton/ha    ton/ha    ton/ha    ton/ha    ton/ha     m      dS/m    dS/m      %     m      dS/m       0.05       0.18       0.33       0.48       0.63       0.80       1.00       1.20       1.43       1.68       1.93       2.18       0.05       0.18       0.33       0.48       0.63       0.80       1.00       1.20       1.43       1.68       1.93       2.18       mm        mm     degC      degC      degC       ppm
     1     7  2011     1     1     263.9     5.1      0.0    0.0    5.1    0.0      0.0      0.0   -9.90     16.0      9.8     61      0.0      0.0   100     16.0     9.8      61     16.6    0.30     -9     -9     -9      0     -9     0.0     0.0      0    -9.00      0.0      0.0      0.0   100     0.0     0.000    -9.9    0.000    0.000      -9        0.00    0.000    0.000     263.9    263.9    0.30    29.9     125.1      34.6      30.7      21.6      15.5       6.9    0.000     0.000     0.000     0.000     0.000    0.30     0.00    0.00      0   -9.90   -9.00        6.9       11.7       11.7       11.7       11.7       11.7       11.7       11.7       11.7       11.7       11.7       11.7        0.0        0.0        0.0        0.0        0.0        0.0        0.0        0.0        0.0        0.0        0.0        0.0      5.1      14.5      19.2      26.3      33.4    391.85
     2     7  2011     2     1     260.1     4.8      0.0    0.0    4.8    0.0      0.0      0.0   -9.90     14.8      8.6     58      0.0      0.0   100     14.8     8.6      58     17.6    0.30     -9     -9     -9      0     -9     0.0     0.0      0    -9.00      0.0      0.0      0.0   100     0.0     0.000    -9.9    0.000    0.000      -9        0.00    0.000    0.000     260.1    260.1    0.30    26.1     125.1      34.6      30.7      20.9      15.5       6.9    0.000     0.000     0.000     0.000     0.000    0.30     0.00    0.00      0   -9.90   -9.00        3.1       11.7       11.7       11.7       11.7       11.7       11.7       11.7       11.7       11.7       11.7       11.7        0.0        0.0        0.0        0.0        0.0        0.0        0.0        0.0        0.0        0.0        0.0        0.0      4.8      13.4      21.2      27.1      33.0    391.85
     3     7  2011     3     1     260.8     9.4      0.0    0.0    9.4    0.0      0.0      0.0   -9.90     15.2      8.8     57      0.0      0.0   100     15.2     8.8      57     17.9    0.30     -9     -9     -9      0     -9     0.0     0.0      0    -9.00      0.0      0.0      0.0   100     0.0     0.000    -9.9    0.000    0.000      -9        0.00    0.000    0.000     260.8    260.8    0.30    26.8     125.1      34.6      30.7      21.2      15.5       6.9    0.000     0.000     0.000     0.000     0.000    0.30     0.00    0.00      0   -9.90   -9.00        3.7       11.7       11.7       11.7       11.7       11.7       11.7       11.7       11.7       11.7       11.7       11.7        0.0        0.0        0.0        0.0        0.0        0.0        0.0        0.0        0.0        0.0        0.0        0.0      9.4      13.9      21.8      27.8      33.9    391.85
     4     7  2011     4     1     259.0     4.7      0.0    0.0    4.7    0.0      0.0      0.0   -9.90     15.9      6.4     40      0.0      0.0   100     15.9     6.4      40     16.9    0.30     -9     -9     -9      0     -9     0.0     0.0      0    -9.00      0.0      0.0      0.0   100     0.0     0.000    -9.9    0.000    0.000      -9        0.00    0.000    0.000     259.0    259.0    0.30    25.0     125.1      34.6      30.7      21.6      15.5       6.9    0.000     0.000     0.000     0.000     0.000    0.30     0.00    0.00      0   -9.90   -9.00        2.0       11.7       11.7       11.7       11.7       11.7       11.7       11.7       11.7       11.7       11.7       11.7        0.0        0.0        0.0        0.0        0.0        0.0        0.0        0.0        0.0        0.0        0.0        0.0      4.7      14.5      19.9      26.8      33.7    391.85
     5     7  2011     5     1     258.2     5.0      0.0    0.0    5.0    0.0      0.0      0.0   -9.90     17.4      5.8     33      0.0      0.0   100     17.4     5.8      33     16.9    0.32     -9     -9     -9      0     -9     0.0     0.0      0    -9.00      0.0      0.0      0.0   100     0.0     0.000    -9.9    0.000    0.000      -9        0.00    0.000    0.000     258.2    258.2    0.32    26.6     133.5      36.9      32.8      24.0      16.5       7.4    0.000     0.000     0.000     0.000     0.000    0.32     0.00    0.00      0   -9.90   -9.00        1.2       11.7       11.7       11.7       11.7       11.7       11.7       11.7       11.7       11.7       11.7       11.7        0.0        0.0        0.0        0.0        0.0        0.0        0.0        0.0        0.0        0.0        0.0        0.0      5.0      15.8      19.7      27.7      35.7    391.85
     6     7  2011     6     1     257.0     1.4      0.0    0.0    1.4    0.0      0.0      0.0   -9.90     15.5      2.6     17      0.0      0.0   100     15.5     2.6      17     16.7    0.36     -9     -9     -9      0     -9     0.0     0.0      0    -9.00      0.0      0.0      0.0   100     0.0     0.000    -9.9    0.000    0.000      -9        0.00    0.000    0.000     257.0    257.0    0.36    30.0     150.6      41.6      37.0      25.7      18.7       8.4    0.000     0.000     0.000     0.000     0.000    0.36     0.00    0.00      0   -9.90   -9.00        1.2       10.9       11.7       11.7       11.7       11.7       11.7       11.7       11.7       11.7       11.7       11.7        0.0        0.0        0.0        0.0        0.0        0.0        0.0        0.0        0.0        0.0        0.0        0.0      1.4      14.1      19.5      26.2      32.9    391.85
     7     7  2011     7     2     259.6     5.5      2.4    0.0    5.5    0.0      0.0      0.0   -9.90     14.9      5.2     35      0.1      0.1   100     15.0     5.3      36     17.1    0.40     -9      0      0      0      0     0.4     0.4      0     0.01      0.1      0.1      0.1   100    34.3     0.003    -9.9    0.000    0.000     100        0.00    0.000    0.000     259.6    259.6    0.40    37.0     166.4      46.0      46.0      28.0      28.0       9.3    0.000     0.000     0.000     0.000     0.000    0.40     0.00    0.00      0   -9.90   -9.00        9.4        9.4        9.5       11.7       11.7       11.7       11.7       11.7       11.7       11.7       11.7       11.7        0.0        0.0        0.0        0.0        0.0        0.0        0.0        0.0        0.0        0.0        0.0        0.0      5.5      13.6      20.1      26.4      32.6    391.85
     8     7  2011     8     2     259.0     7.9      1.1    0.0    7.9    0.0      0.0      0.0   -9.90     15.3      9.4     62      0.1      0.1   100     15.4     9.6      62     16.9    0.43     -9      0      0      0      0     0.5     0.5      0     0.01      0.1      0.1      0.1   100    34.3     0.006    -9.9    0.000    0.000     100        0.00    0.000    0.000     259.0    259.0    0.43    41.1     181.2      50.1      50.1      30.9      30.9      10.2    0.000     0.000     0.000     0.000     0.000    0.43     0.00    0.00      0   -9.90   -9.00        9.4        9.4        9.5       11.2       11.7       11.7       11.7       11.7       11.7       11.7       11.7       11.7        0.0        0.0        0.0        0.0        0.0        0.0        0.0        0.0        0.0        0.0        0.0        0.0      7.9      14.1      19.7      26.4      33.0    391.85
     9     7  2011     9     2     258.3     7.9      1.3    0.0    7.9    0.0      0.0      0.0   -9.90     16.2      9.7     60      0.2      0.2   100     16.4     9.9      61     16.3    0.47      0      0      0      0      0     0.6     0.6      0     0.01      0.2      0.2      0.2   100    34.3     0.010    -9.9    0.000    0.000     100        0.00    0.000    0.000     258.3    258.3    0.47    44.7     195.4      54.0      54.0      34.2      34.2      11.0    0.000     0.000     0.000     0.000     0.000    0.47     0.00    0.00      0   -9.90   -9.00        9.5        9.5        9.6       10.5       11.7       11.7       11.7       11.7       11.7       11.7       11.7       11.7        0.0        0.0        0.0        0.0        0.0        0.0        0.0        0.0        0.0        0.0        0.0        0.0      7.9      14.9      18.6      26.1      33.7    391.85
    10     7  2011    10     2     257.3     3.2      4.1    0.0    3.2    0.0      0.0      0.0   -9.90     15.9      8.2     51      0.2      0.2   100     16.1     8.4      52     17.3    0.50      0      0      0      0      0     0.7     0.7      0     0.01      0.2      0.2      0.2   100    34.3     0.014    -9.9    0.000    0.000     100        0.00    0.000    0.000     257.3    257.3    0.50    47.4     209.1      57.8      57.8      36.4      36.4      11.9    0.000     0.000     0.000     0.000     0.000    0.50     0.00    0.00      0   -9.90   -9.00        9.5        9.5        9.6        9.9       11.7       11.7       11.7       11.7       11.7       11.7       11.7       11.7        0.0        0.0        0.0        0.0        0.0        0.0        0.0        0.0        0.0        0.0        0.0        0.0      3.2      14.7      20.6      27.4      34.3    391.85
    11     7  2011    11     2     261.2    15.2      0.0    0.0   15.0    0.2      0.0      0.0   -9.90     16.9     10.8     64      0.2      0.2   100     17.1    11.1      65     16.7    0.53      0      0      0      0      0     0.8     0.8      0     0.02      0.2      0.2      0.2   100    34.3     0.019    -9.9    0.000    0.000     100        0.00    0.000    0.000     261.2    261.2    0.53    54.4     222.3      61.4      61.4      39.7      39.7      12.6    0.000     0.000     0.000     0.000     0.000    0.53     0.00    0.00      0   -9.90   -9.00       13.5        9.5        9.6        9.9       11.7       11.7       11.7       11.7       11.7       11.7       11.7       11.7        0.0        0.0        0.0        0.0        0.0        0.0        0.0        0.0        0.0        0.0        0.0        0.0     15.2      15.6      19.4      27.3      35.1    391.85
    12     7  2011    12     2     263.1    13.0      0.0    0.0   12.5    0.5      0.0      0.0   -9.90     15.3     10.3     67      0.3      0.3   100     15.6    10.5      68     17.9    0.56      0      0      0      0      0     1.0     1.0      0     0.02      0.3      0.3      0.3   100    34.3     0.025    -9.9    0.000    0.000     100        0.00    0.000    0.000     263.1    263.1    0.56    59.5     235.2      65.0      65.0      40.3      40.3      13.4    0.000     0.000     0.000     0.000     0.000    0.56     0.00    0.00      0   -9.90   -9.00       13.9       10.6        9.6        9.9       11.7       11.7       11.7       11.7       11.7       11.7       11.7       11.7        0.0        0.0        0.0        0.0        0.0        0.0        0.0        0.0        0.0        0.0        0.0        0.0     13.0      14.2      21.8      28.0      34.3    391.85
    13     7  2011    13     2     257.3     4.0      0.0    0.0    4.0    0.0      0.0      0.0   -9.90     16.3      9.6     59      0.3      0.3   100     16.6     9.9      59     16.5    0.59      0      0      0      0      0     1.2     1.2      0     0.02      0.3      0.3      0.3   100    34.3     0.032    -9.9    0.000    0.000     100        0.00    0.000    0.000     257.3    257.3    0.59    57.1     247.7      68.4      68.4      43.7      43.7      14.1    0.000     0.000     0.000     0.000     0.000    0.59     0.00    0.00      0   -9.90   -9.00        6.0       11.7        9.7        9.9       11.7       11.7       11.7       11.7       11.7       11.7       11.7       11.7        0.0        0.0        0.0        0.0        0.0        0.0        0.0        0.0        0.0        0.0        0.0        0.0      4.0      15.1      19.0      26.6      34.2    391.85
    14     7  2011    14     2     255.5     7.5      0.0    0.0    7.5    0.0      0.0      0.0   -9.90     15.0      8.9     59      0.3      0.3   100     15.3     9.2      60     16.6    0.62      0      0      0      0      0     1.4     1.4      0     0.02      0.3      0.3      0.3   100    34.3     0.041    -9.9    0.000    0.000     100        0.00    0.000    0.000     255.5    255.5    0.62    58.7     259.9      71.8      71.8      44.3      44.3      14.8    0.000     0.000     0.000     0.000     0.000    0.62     0.00    0.00      0   -9.90   -9.00        4.3       11.7        9.7        9.9       11.7       11.7       11.7       11.7       11.7       11.7       11.7       11.7        0.0        0.0        0.0        0.0        0.0        0.0        0.0        0.0        0.0        0.0        0.0        0.0      7.5      13.9      19.3      25.9      32.6    391.85
    15     7  2011    15     2     255.2     5.4      2.0    0.0    5.4    0.0      0.0      0.0   -9.90     16.4      7.3     45      0.4      0.4   100     16.9     7.8      46     16.1    0.65      7      0      0      0      0     1.6     1.6      0     0.03      0.4      0.4      0.4   100    34.3     0.051    -9.9    0.000    0.000     100        0.00    0.000    0.000     255.2    255.2    0.65    62.4     271.9      75.1      75.1      48.3      48.3      15.6    0.000     0.000     0.000     0.000     0.000    0.65     0.00    0.00      0   -9.90   -9.00        9.6        9.6        9.6        9.6       10.4       11.7       11.7       11.7       11.7       11.7       11.7       11.7        0.0        0.0        0.0        0.0        0.0        0.0        0.0        0.0        0.0        0.0        0.0        0.0      5.4      15.3      18.3      26.2      34.2    391.85
    16     7  2011    16     2     254.4     9.4      0.0    0.0    9.4    0.0      0.0      0.0   -9.90     15.6      9.7     62      0.5      0.5   100     16.1    10.2      63     16.6    0.67      0      0      0      0      0     1.9     1.9      0     0.03      0.5      0.5      0.5   100    34.3     0.062    -9.9    0.000    0.000     100        0.00    0.000    0.000     254.4    254.4    0.67    64.5     283.6      78.3      78.3      49.4      49.4      16.2    0.000     0.000     0.000     0.000     0.000    0.67     0.00    0.00      0   -9.90   -9.00        8.8        9.6        9.6        9.6       10.4       11.7       11.7       11.7       11.7       11.7       11.7       11.7        0.0        0.0        0.0        0.0        0.0        0.0        0.0        0.0        0.0        0.0        0.0        0.0      9.4      14.7      19.1      26.4      33.6    391.85
    17     7  2011    17     2     253.8     9.7      0.0    0.0    9.7    0.0      0.0      0.0   -9.90     15.7      9.6     61      0.6      0.6   100     16.3    10.2      63     17.2    0.70      0      0      0      0      0     2.2     2.2      0     0.04      0.6      0.6      0.6   100    34.3     0.076    -9.9    0.000    0.000     100        0.00    0.000    0.000     253.8    253.8    0.70    66.8     295.2      81.5      81.5      51.7      51.7      16.9    0.000     0.000     0.000     0.000     0.000    0.70     0.00    0.00      0   -9.90   -9.00        8.2        9.6        9.6        9.6       10.4       11.7       11.7       11.7       11.7       11.7       11.7       11.7        0.0        0.0        0.0        0.0        0.0        0.0        0.0        0.0        0.0        0.0        0.0        0.0      9.7      14.9      20.4      27.5      34.5    391.85
    18     7  2011    18     2     252.2     3.2      3.2    0.0    3.2    0.0      0.0      0.0   -9.90     14.4      7.5     52      0.6      0.6   100     15.1     8.1      54     17.7    0.73      1      0      0      0      0     2.6     2.6      0     0.05      0.6      0.6      0.6   100    34.3     0.092    -9.9    0.000    0.000      99        0.00    0.000    0.000     252.2    252.2    0.73    68.8     306.5      84.6      84.6      51.9      51.9      17.6    0.000     0.000     0.000     0.000     0.000    0.73     0.00    0.00      0   -9.90   -9.00        9.4        9.4        9.5        9.5        9.5       11.4       11.7       11.7       11.7       11.7       11.7       11.7        0.0        0.0        0.0        0.0        0.0        0.0        0.0        0.0        0.0        0.0        0.0        0.0      3.2      13.7      21.3      27.4      33.4    391.85
    19     7  2011    19     2     251.9     1.6      5.7    0.0    1.6    0.0      0.0      0.0   -9.90     15.2      6.9     45      0.8      0.8   100     16.0     7.7      48     17.2    0.75      3      0      0      0      0     3.1     3.1      0     0.05      0.8      0.8      0.8   100    34.3     0.111    -9.9    0.000    0.000      99        0.00    0.000    0.000     251.9    251.9    0.75    72.2     317.7      87.7      87.7      55.2      55.2      18.3    0.000     0.000     0.000     0.000     0.000    0.75     0.00    0.00      0   -9.90   -9.00        9.5        9.5        9.5        9.5        9.5       10.9       11.7       11.7       11.7       11.7       11.7       11.7        0.0        0.0        0.0        0.0        0.0        0.0        0.0        0.0        0.0        0.0        0.0        0.0      1.6      14.6      20.5      27.3      34.2    391.85
    20     7  2011    20     2     249.4     3.7      2.6    0.0    3.7    0.0      0.0      0.0   -9.90     13.4      8.0     60      0.8      0.8   100     14.2     8.8      62     17.7    0.78      0      0      0      0      0     3.7     3.7      0     0.06      0.8      0.8      0.8   100    34.3     0.133    -9.9    0.000    0.000      99        0.00    0.000    0.000     249.4    249.4    0.78    73.3     328.7      90.8      90.8      54.4      54.4      18.9    0.000     0.000     0.000     0.000     0.000    0.78     0.00    0.00      0   -9.90   -9.00        9.3        9.3        9.4        9.4        9.4       10.3       11.7       11.7       11.7       11.7       11.7       11.7        0.0        0.0        0.0        0.0        0.0        0.0        0.0        0.0        0.0        0.0        0.0        0.0      3.7      12.9      21.5      27.0      32.4    391.85
    21     7  2011    21     2     251.0     5.2      6.9    0.0    5.2    0.0      0.0      0.0   -9.90     16.2      9.2     57      1.2      1.2   100     17.4    10.4      60     17.3    0.81      0      0      0      0      0     4.3     4.3      0     0.08      1.2      1.2      1.2   100    34.3     0.159    -9.9    0.000    0.000      99        0.00    0.000    0.000     251.0    251.0    0.81    77.8     339.6      93.8      93.8      61.3      61.3      19.5    0.000     0.000     0.000     0.000     0.000    0.81     0.00    0.00      0   -9.90   -9.00        9.6        9.6        9.7        9.7        9.7       10.0       11.7       11.7       11.7       11.7       11.7       11.7        0.0        0.0        0.0        0.0        0.0        0.0        0.0        0.0        0.0        0.0        0.0        0.0      5.2      15.9      20.5      28.3      36.1    391.85
    22     7  2011    22     2     249.3     7.8      0.9    0.0    7.8    0.0      0.0      0.0   -9.90     14.5      9.1     63      1.3      1.3   100     15.8    10.4      66     17.4    0.83      0      0      0      0      0     5.1     5.1      0     0.09      1.3      1.3      1.3   100    34.3     0.189    -9.9    0.000    0.000      99        0.00    0.000    0.000     249.3    249.3    0.83    78.8     350.3      96.7      96.7      60.6      60.6      20.2    0.000     0.000     0.000     0.000     0.000    0.83     0.00    0.00      0   -9.90   -9.00        9.5        9.5        9.5        9.5        9.5        9.7       11.7       11.7       11.7       11.7       11.7       11.7        0.0        0.0        0.0        0.0        0.0        0.0        0.0        0.0        0.0        0.0        0.0        0.0      7.8      14.4      20.9      27.5      34.1    391.85
    23     7  2011    23     2     249.3     3.1      6.4    0.0    3.1    0.0      0.0      0.0   -9.90     14.5      8.0     55      1.5      1.5   100     16.0     9.6      60     17.4    0.86      0      0      0      0      0     6.0     6.0      0     0.10      1.5      1.5      1.5   100    34.3     0.225    -9.9    0.000    0.000      99        0.00    0.000    0.000     249.3    249.3    0.86    81.3     360.9      99.7      99.7      62.8      62.8      20.8    0.000     0.000     0.000     0.000     0.000    0.86     0.00    0.00      0   -9.90   -9.00        9.5        9.5        9.6        9.6        9.6        9.6       11.7       11.7       11.7       11.7       11.7       11.7        0.0        0.0        0.0        0.0        0.0        0.0        0.0        0.0        0.0        0.0        0.0        0.0      3.1      14.6      20.8      27.6      34.4    391.85
    24     7  2011    24     2     249.8    12.3      0.0    0.0   12.3    0.1      0.0      0.0   -9.90     14.7      9.9     67      1.8      1.8   100     16.5    11.8      71     16.4    0.88      0      0      0      0      0     7.1     7.1      0     0.12      1.8      1.8      1.8   100    34.3     0.267    -9.9    0.000    0.000      99        0.00    0.000    0.000     249.8    249.8    0.88    84.1     371.4     102.5     102.5      65.6      65.6      21.4    0.000     0.000     0.000     0.000     0.000    0.88     0.00    0.00      0   -9.90   -9.00       10.0        9.5        9.6        9.6        9.6        9.6       11.7       11.7       11.7       11.7       11.7       11.7        0.0        0.0        0.0        0.0        0.0        0.0        0.0        0.0        0.0        0.0        0.0        0.0     12.3      15.1      18.9      26.5      34.1    391.85
    25     7  2011    25     2     249.7     5.1      5.8    0.0    5.1    0.0      0.0      0.0   -9.90     14.5      8.8     61      2.2      2.2   100     16.7    11.0      66     16.6    0.91      0      0      0      0      0     8.4     8.4      0     0.14      2.2      2.2      2.2   100    34.3     0.316    -9.9    0.000    0.000      99        0.00    0.000    0.000     249.7    249.7    0.91    86.7     381.7     105.4     105.4      67.7      67.7      22.0    0.000     0.000     0.000     0.000     0.000    0.91     0.00    0.00      0   -9.90   -9.00        9.6        9.6        9.6        9.6        9.6        9.6       11.6       11.7       11.7       11.7       11.7       11.7        0.0        0.0        0.0        0.0        0.0        0.0        0.0        0.0        0.0        0.0        0.0        0.0      5.1      15.3      19.2      26.9      34.5    391.85
    26     7  2011    26     2     252.2    14.8      0.0    0.0   14.5    0.2      0.0      0.0   -9.90     13.4      9.7     72      2.4      2.4   100     15.9    12.1      76     17.3    0.93      0      0      0      0      0     9.9     9.9      0     0.17      2.4      2.4      2.4   100    34.3     0.373    -9.9    0.000    0.000      99        0.00    0.000    0.000     252.2    252.2    0.93    91.9     392.0     108.2     108.2      68.1      68.1      22.6    0.000     0.000     0.000     0.000     0.000    0.93     0.00    0.00      0   -9.90   -9.00       12.0        9.6        9.6        9.6        9.6        9.6       11.6       11.7       11.7       11.7       11.7       11.7        0.0        0.0        0.0        0.0        0.0        0.0        0.0        0.0        0.0        0.0        0.0        0.0     14.8      14.6      20.5      27.3      34.1    391.85
    27     7  2011    27     2     249.1     4.0      5.0    0.0    4.0    0.0      0.0      0.0   -9.90     14.1      9.0     64      3.1      3.1   100     17.1    12.1      70     16.1    0.95      0      0      0      0      0    11.6    11.6      0     0.20      3.1      3.1      3.1   100    34.3     0.440    -9.9    0.000    0.000      99        0.00    0.000    0.000     249.1    249.1    0.95    92.4     402.2     111.0     111.0      72.2      72.2      23.2    0.000     0.000     0.000     0.000     0.000    0.95     0.00    0.00      0   -9.90   -9.00        9.6        9.6        9.7        9.7        9.7        9.7       11.1       11.7       11.7       11.7       11.7       11.7        0.0        0.0        0.0        0.0        0.0        0.0        0.0        0.0        0.0        0.0        0.0        0.0      4.0      15.7      18.2      26.5      34.7    391.85
    28     7  2011    28     2     246.9     5.7      3.9    0.0    5.7    0.0      0.0      0.0   -9.90     12.6      8.5     67      3.3      3.3   100     15.9    11.8      74     17.7    0.98      0      0      0      0      0    13.7    13.7      0     0.23      3.3      3.3      3.3   100    34.3     0.518    -9.9    0.000    0.000      99        0.00    0.000    0.000     246.9    246.9    0.98    93.5     412.2     113.8     113.8      71.8      71.8      23.8    0.000     0.000     0.000     0.000     0.000    0.98     0.00    0.00      0   -9.90   -9.00        9.5        9.5        9.6        9.6        9.6        9.6       10.5       11.7       11.7       11.7       11.7       11.7        0.0        0.0        0.0        0.0        0.0        0.0        0.0        0.0        0.0        0.0        0.0        0.0      5.7      14.6      21.3      28.0      34.7    391.85
    29     7  2011    29     2     244.8     6.7      2.9    0.0    6.7    0.0      0.0      0.0   -9.90     11.2      8.0     72      3.6      3.6   100     14.8    11.6      79     17.3    1.00      0      0      0      0      0    16.2    16.2      0     0.26      3.6      3.6      3.6   100    34.3     0.609    -9.9    0.000    0.000      99        0.00    0.000    0.000     244.8    244.8    1.00    94.5     422.2     116.6     116.6      71.4      71.4      24.4    0.000     0.000     0.000     0.000     0.000    1.00     0.00    0.00      0   -9.90   -9.00        9.4        9.4        9.4        9.4        9.4        9.4       10.0       11.7       11.7       11.7       11.7       11.7        0.0        0.0        0.0        0.0        0.0        0.0        0.0        0.0        0.0        0.0        0.0        0.0      6.7      13.6      20.5      26.7      32.8    391.85
    30     7  2011    30     2     246.7     9.3      6.1    0.0    9.3    0.0      0.0      0.0   -9.90     12.4      8.7     71      4.9      4.9   100     17.2    13.6      79     16.4    1.02      0      0      0      0      0    19.1    19.1      0     0.31      4.9      4.9      4.9   100    34.3     0.714    -9.9    0.000    0.000      99        0.00    0.000    0.000     246.7    246.7    1.02    98.8     432.0     119.3     119.3      78.0      78.0      25.0    0.000     0.000     0.000     0.000     0.000    1.02     0.00    0.00      0   -9.90   -9.00        9.6        9.6        9.7        9.7        9.7        9.7        9.8       11.7       11.7       11.7       11.7       11.7        0.0        0.0        0.0        0.0        0.0        0.0        0.0        0.0        0.0        0.0        0.0        0.0      9.3      15.9      18.8      27.1      35.3    391.85
    31     7  2011    31     2     245.5     6.0      6.0    0.0    6.0    0.0      0.0      0.0   -9.90     10.9      7.9     73      5.3      5.3   100     16.2    13.2      82     17.1    1.05      0      0      0      0      0    22.5    22.5      0     0.35      5.3      5.3      5.3   100    34.3     0.836    -9.9    0.000    0.000      99        0.00    0.000    0.000     245.5    245.5    1.05    99.9     441.8     122.0     122.0      77.7      77.7      25.6    0.000     0.000     0.000     0.000     0.000    1.05     0.00    0.00      0   -9.90   -9.00        9.5        9.5        9.6        9.6        9.6        9.6        9.6       11.7       11.7       11.7       11.7       11.7        0.0        0.0        0.0        0.0        0.0        0.0        0.0        0.0        0.0        0.0        0.0        0.0      6.0      15.0      20.2      27.4      34.6    391.85
     1     8  2011    32     2     245.7     7.1      7.1    0.0    7.1    0.0      0.0      0.0   -9.90     10.2      7.7     76      6.2      6.2   100     16.5    14.0      85     17.0    1.07      0      0      0      0      0    26.5    26.5      0     0.41      6.2      6.2      6.2   100    34.3     0.976    -9.9    0.000    0.000      99        0.00    0.000    0.000     245.7    245.7    1.07   102.4     451.5     124.7     124.7      80.1      80.1      26.1    0.000     0.000     0.000     0.000     0.000    1.07     0.00    0.00      0   -9.90   -9.00        9.6        9.6        9.6        9.6        9.6        9.6        9.6       11.7       11.7       11.7       11.7       11.7        0.0        0.0        0.0        0.0        0.0        0.0        0.0        0.0        0.0        0.0        0.0        0.0      7.1      15.3      20.0      27.4      34.9    391.85
     2     8  2011    33     2     245.3     2.4     10.2    0.0    2.4    0.0      0.0      0.0   -9.90      9.1      5.9     65      7.0      7.0   100     16.1    12.9      80     15.9    1.09      0      0      0      0      0    31.3    31.3      0     0.47      7.0      7.0      7.0   100    34.3     1.137    -9.9    0.000    0.000      99        0.00    0.000    0.000     245.3    245.3    1.09   104.2     461.2     127.3     127.3      81.1      81.1      26.7    0.000     0.000     0.000     0.000     0.000    1.09     0.00    0.00      0   -9.90   -9.00        9.5        9.5        9.6        9.6        9.6        9.6        9.6       11.7       11.7       11.7       11.7       11.7        0.0        0.0        0.0        0.0        0.0        0.0        0.0        0.0        0.0        0.0        0.0        0.0      2.4      15.0      17.8      25.6      33.4    391.85
     3     8  2011    34     2     243.9    12.2      0.7    0.0   12.2    0.1      0.0      0.0   -9.90      7.5      6.8     90      7.5      7.5   100     15.1    14.3      95     17.2    1.12      0      0      0      0      0    36.9    36.9      0     0.54      7.5      7.5      7.5   100    34.3     1.321    -9.9    0.000    0.000      99        0.00    0.000    0.000     243.9    243.9    1.12   105.6     470.7     130.0     130.0      80.6      80.6      27.3    0.000     0.000     0.000     0.000     0.000    1.12     0.00    0.00      0   -9.90   -9.00        9.4        9.4        9.5        9.5        9.5        9.5        9.5       11.5       11.7       11.7       11.7       11.7        0.0        0.0        0.0        0.0        0.0        0.0        0.0        0.0        0.0        0.0        0.0        0.0     12.2      14.1      20.4      26.9      33.4    391.85
     4     8  2011    35     2     245.5     3.9     13.7    0.0    3.9    0.0      0.0      0.0   -9.90      7.3      6.3     86      9.7      9.7   100     17.0    16.0      94     16.3    1.14      0      0      0      0      0    43.5    43.5      0     0.61      9.7      9.7      9.7   100    34.3     1.530    -9.9    0.000    0.000      99        0.00    0.000    0.000     245.5    245.5    1.14   110.3     480.2     132.6     132.6      86.9      86.9      27.8    0.000     0.000     0.000     0.000     0.000    1.14     0.00    0.00      0   -9.90   -9.00        9.7        9.7        9.7        9.7        9.7        9.7        9.7       11.2       11.7       11.7       11.7       11.7        0.0        0.0        0.0        0.0        0.0        0.0        0.0        0.0        0.0        0.0        0.0        0.0      3.9      16.0      18.5      26.9      35.2    391.85
     5     8  2011    36     2     243.4    12.4      1.3    0.0   12.3    0.1      0.0      0.0   -9.90      5.6      5.4     96     10.3     10.3   100     15.9    15.7      99     17.1    1.16      0      0      0      0      0    51.1    51.1      0     0.69     10.3     10.3     10.3   100    34.3     1.765    -9.9    0.000    0.000      99        0.00    0.000    0.000     243.4    243.4    1.16   111.4     489.6     135.2     135.2      86.2      86.2      28.4    0.000     0.000     0.000     0.000     0.000    1.16     0.00    0.00      0   -9.90   -9.00        9.5        9.5        9.6        9.6        9.6        9.6        9.6       10.7       11.7       11.7       11.7       11.7        0.0        0.0        0.0        0.0        0.0        0.0        0.0        0.0        0.0        0.0        0.0        0.0     12.4      15.0      20.1      27.4      34.6    391.85
     6     8  2011    37     2     243.4     3.2     13.1    0.0    3.2    0.0      0.0      0.0   -9.90      4.9      4.5     92     11.8     11.8   100     16.7    16.3      98     16.5    1.18      0      0      0      0      0    57.8    57.8      0     0.75     11.8     11.8     11.8   100    34.3     2.022    -9.9    0.000    0.000      99        0.00    0.000    0.000     243.4    243.4    1.18   114.3     499.0     137.8     137.8      89.8      89.8      28.9    0.000     0.000     0.000     0.000     0.000    1.18     0.00    0.00      0   -9.90   -9.00        9.6        9.6        9.7        9.7        9.7        9.7        9.7       10.3       11.7       11.7       11.7       11.7        0.0        0.0        0.0        0.0        0.0        0.0        0.0        0.0        0.0        0.0        0.0        0.0      3.2      15.8      19.1      27.1      35.2    391.85
     7     8  2011    38     2     242.5     3.3     12.2    0.0    3.3    0.0      0.0      0.0   -9.90      4.0      3.9     98     12.4     12.4   100     16.5    16.4     100     16.6    1.20      0      0      0      0      0    63.5    63.5      0     0.80     12.4     12.4     12.4   100    34.3     2.296    -9.9    0.000    0.000      99        0.00    0.000    0.000     242.5    242.5    1.20   116.0     508.3     140.3     140.3      91.0      91.0      29.5    0.000     0.000     0.000     0.000     0.000    1.20     0.00    0.00      0   -9.90   -9.00        9.6        9.6        9.7        9.7        9.7        9.7        9.7       10.0       11.7       11.7       11.7       11.7        0.0        0.0        0.0        0.0        0.0        0.0        0.0        0.0        0.0        0.0        0.0        0.0      3.3      15.6      19.3      27.1      35.0    391.85
     8     8  2011    39     2     242.0     4.3     11.5    0.0    4.3    0.0      0.0      0.0   -9.90      3.3      3.3    100     13.0     13.0   100     16.3    16.3     100     17.1    1.23      0      0      0      0      0    68.3    68.3      0     0.84     13.0     13.0     13.0   100    34.3     2.584    -9.9    0.000    0.000      99        0.00    0.000    0.000     242.0    242.0    1.23   117.8     517.5     142.9     142.9      92.3      92.3      30.0    0.000     0.000     0.000     0.000     0.000    1.23     0.00    0.00      0   -9.90   -9.00        9.6        9.6        9.6        9.6        9.6        9.6        9.6        9.8       11.7       11.7       11.7       11.7        0.0        0.0        0.0        0.0        0.0        0.0        0.0        0.0        0.0        0.0        0.0        0.0      4.3      15.5      20.2      27.7      35.3    391.85
     9     8  2011    40     2     242.1     4.5     12.1    0.0    4.5    0.0      0.0      0.0   -9.90      2.8      2.8    100     13.7     13.7   100     16.5    16.5     100     17.3    1.25      0      0      0      0      0    72.4    72.4      0     0.87     13.7     13.7     13.7   100    34.3     2.883    -9.9    0.000    0.000      99        0.00    0.000    0.000     242.1    242.1    1.25   120.0     526.7     145.4     145.4      94.6      94.6      30.6    0.000     0.000     0.000     0.000     0.000    1.25     0.00    0.00      0   -9.90   -9.00        9.6        9.6        9.7        9.7        9.7        9.7        9.7        9.7       11.7       11.7       11.7       11.7        0.0        0.0        0.0        0.0        0.0        0.0        0.0        0.0        0.0        0.0        0.0        0.0      4.5      15.7      20.6      28.2      35.8    391.85
    10     8  2011    41     2     248.1    22.8      0.0    0.0   21.6    1.1      0.0      0.0   -9.90      2.3      2.3    100     13.4     13.4   100     15.7    15.7     100     16.6    1.27      0      0      0      0      0    75.9    75.9      0     0.90     13.4     13.4     13.4   100    34.3     3.191    -9.9    0.000    0.000      99        0.00    0.000    0.000     248.1    248.1    1.27   128.1     535.8     147.9     147.9      94.1      94.1      31.1    0.000     0.000     0.000     0.000     0.000    1.27     0.00    0.00      0   -9.90   -9.00       26.5        6.8        6.9        8.2        9.7        9.7        9.7        9.7       11.7       11.7       11.7       11.7        0.0        0.0        0.0        0.0        0.0        0.0        0.0        0.0        0.0        0.0        0.0        0.0     22.8      14.9      19.1      26.5      33.9    391.85
    11     8  2011    42     2     247.4    13.7      0.0    0.0   13.1    0.6      0.0      0.0   -9.90      1.7      1.7    100     12.1     12.1   100     13.8    13.8     100     17.1    1.29      0      0      0      0      0    78.8    78.8      0     0.92     12.1     12.1     12.1   100    34.3     3.506    -9.9    0.000    0.000      99        0.00    0.000    0.000     247.4    247.4    1.29   129.5     544.9     150.4     150.4      90.8      90.8      31.6    0.000     0.000     0.000     0.000     0.000    1.29     0.00    0.00      0   -9.90   -9.00       21.6        9.4        7.6        7.6        9.7        9.7        9.7        9.7       11.7       11.7       11.7       11.7        0.0        0.0        0.0        0.0        0.0        0.0        0.0        0.0        0.0        0.0        0.0        0.0     13.7      13.1      20.3      26.1      32.0    391.85
    12     8  2011    43     2     245.5    13.2      0.0    0.0   12.7    0.5      0.0      0.0   -9.90      1.6      1.6    100     13.1     13.1   100     14.7    14.7     100     17.1    1.31      0      0      0      0      0    81.3    81.3      0     0.94     13.1     13.1     13.1   100    34.3     3.828    -9.9    0.000    0.000      99        0.00    0.000    0.000     245.5    245.5    1.31   129.8     553.9     152.9     152.9      94.7      94.7      32.2    0.000     0.000     0.000     0.000     0.000    1.31     0.00    0.00      0   -9.90   -9.00       21.2        9.3        7.9        6.4        9.7        9.7        9.7        9.7       11.7       11.7       11.7       11.7        0.0        0.0        0.0        0.0        0.0        0.0        0.0        0.0        0.0        0.0        0.0        0.0     13.2      14.0      20.2      26.7      33.2    391.85
    13     8  2011    44     2     244.9    14.3      0.0    0.0   13.6    0.7      0.0      0.0   -9.90      1.3      1.3    100     12.8     12.8   100     14.1    14.1     100     17.1    1.33      0      0      0      0      0    83.5    83.5      0     0.95     12.8     12.8     12.8   100    34.3     4.155    -9.9    0.000    0.000      99        0.00    0.000    0.000     244.9    244.9    1.33   131.7     562.8     155.4     155.4      94.8      94.8      32.7    0.000     0.000     0.000     0.000     0.000    1.33     0.00    0.00      0   -9.90   -9.00       22.4        9.3        7.9        5.3        9.7        9.7        9.7        9.7       11.7       11.7       11.7       11.7        0.0        0.0        0.0        0.0        0.0        0.0        0.0        0.0        0.0        0.0        0.0        0.0     14.3      13.5      20.1      26.3      32.4    391.85
    14     8  2011    45     2     240.1    11.2      0.0    0.0   10.9    0.3      0.0      0.0   -9.90      1.2      1.2    100     14.5     14.5   100     15.7    15.7     100     16.9    1.35      0      0      0      0      0    85.3    85.3      0     0.97     14.5     14.5     14.5   100    34.3     4.486    -9.9    0.000    0.000      99        0.00    0.000    0.000     240.1    240.1    1.35   129.4     571.7     157.8     157.8     100.8     100.8      33.2    0.000     0.000     0.000     0.000     0.000    1.35     0.00    0.00      0   -9.90   -9.00       19.8        9.4        8.5        3.1        9.7        9.7        9.7        9.7       11.7       11.7       11.7       11.7        0.0        0.0        0.0        0.0        0.0        0.0        0.0        0.0        0.0        0.0        0.0        0.0     11.2      15.0      19.9      27.2      34.6    391.85
    15     8  2011    46     2     241.1     2.4     15.4    0.0    2.4    0.0      0.0      0.0   -9.90      1.1      1.1    100     15.7     15.7   100     16.8    16.8     100     16.8    1.37      0      0      0      0      0    86.8    86.8      0     0.98     15.7     15.7     15.7   100    34.3     4.821    -9.9    0.000    0.000      99        0.00    0.000    0.000     241.1    241.1    1.37   133.9     580.6     160.3     160.3     105.4     105.4      33.8    0.000     0.000     0.000     0.000     0.000    1.37     0.00    0.00      0   -9.90   -9.00        9.7        9.7        9.7        9.7        9.7        9.7        9.7        9.7       11.1       11.7       11.7       11.7        0.0        0.0        0.0        0.0        0.0        0.0        0.0        0.0        0.0        0.0        0.0        0.0      2.4      16.1      19.6      27.8      36.0    391.85
    16     8  2011    47     2     237.6     4.1      7.7    0.0    4.1    0.0      0.0      0.0   -9.90      0.9      0.9    100     14.4     14.4   100     15.3    15.3     100     17.1    1.40      0      0      0      0      0    88.1    88.1      0     0.99     14.4     14.4     14.4   100    34.3     5.159    -9.9    0.000    0.000      99        0.00    0.000    0.000     237.6    237.6    1.40   133.6     589.4     162.7     162.7     102.7     102.7      34.3    0.000     0.000     0.000     0.000     0.000    1.40     0.00    0.00      0   -9.90   -9.00        9.5        9.5        9.5        9.5        9.5        9.5        9.5        9.5       10.5       11.7       11.7       11.7        0.0        0.0        0.0        0.0        0.0        0.0        0.0        0.0        0.0        0.0        0.0        0.0      4.1      14.6      20.2      27.2      34.1    391.85
    17     8  2011    48     2     235.6     8.0      4.6    0.0    8.0    0.0      0.0      0.0   -9.90      0.8      0.8    100     13.9     13.9   100     14.7    14.7     100     17.1    1.42      0      0      0      0      0    89.1    89.1      0     0.99     13.9     13.9     13.9   100    34.3     5.499    -9.9    0.000    0.000      99        0.00    0.000    0.000     235.6    235.6    1.42   134.4     598.2     165.1     165.1     102.4     102.4      34.8    0.000     0.000     0.000     0.000     0.000    1.42     0.00    0.00      0   -9.90   -9.00        9.4        9.4        9.5        9.5        9.5        9.5        9.5        9.5       10.0       11.7       11.7       11.7        0.0        0.0        0.0        0.0        0.0        0.0        0.0        0.0        0.0        0.0        0.0        0.0      8.0      14.0      20.3      26.8      33.3    391.85
    18     8  2011    49     2     237.6     8.9      9.6    0.0    8.9    0.0      0.0      0.0   -9.90      0.7      0.7    100     15.8     15.8   100     16.5    16.5     100     16.6    1.44      0      0      0      0      0    90.1    90.1      0     1.00     15.8     15.8     15.8   100    34.3     5.841    -9.9    0.000    0.000      99        0.00    0.000    0.000     237.6    237.6    1.44   138.7     606.9     167.5     167.5     109.4     109.4      35.3    0.000     0.000     0.000     0.000     0.000    1.44     0.00    0.00      0   -9.90   -9.00        9.6        9.6        9.7        9.7        9.7        9.7        9.7        9.7        9.8       11.7       11.7       11.7        0.0        0.0        0.0        0.0        0.0        0.0        0.0        0.0        0.0        0.0        0.0        0.0      8.9      15.8      19.2      27.3      35.4    391.85
    19     8  2011    50     2     235.3     5.1      7.8    0.0    5.1    0.0      0.0      0.0   -9.90      0.6      0.6    100     14.6     14.6   100     15.2    15.2     100     17.3    1.46      0      0      0      0      0    90.8    90.8      0     1.00     14.6     14.6     14.6   100    34.3     6.186    -9.9    0.000    0.000      99        0.00    0.000    0.000     235.3    235.3    1.46   138.6     615.5     169.9     169.9     106.9     106.9      35.8    0.000     0.000     0.000     0.000     0.000    1.46     0.00    0.00      0   -9.90   -9.00        9.5        9.5        9.5        9.5        9.5        9.5        9.5        9.5        9.7       11.7       11.7       11.7        0.0        0.0        0.0        0.0        0.0        0.0        0.0        0.0        0.0        0.0        0.0        0.0      5.1      14.5      20.6      27.5      34.3    391.85
    20     8  2011    51     2     236.6    14.9      2.8    0.0   14.7    0.2      0.0      0.0   -9.90      0.6      0.6    100     15.6     15.6   100     16.2    16.2     100     16.3    1.48      0      0      0      0      0    91.5    91.5      0     1.01     15.6     15.6     15.6   100    34.3     6.532    -9.9    0.000    0.000      99        0.00    0.000    0.000     236.6    236.6    1.48   141.9     624.2     172.3     172.3     111.4     111.4      36.3    0.000     0.000     0.000     0.000     0.000    1.48     0.00    0.00      0   -9.90   -9.00        9.6        9.6        9.6        9.6        9.6        9.6        9.6        9.6        9.6       11.7       11.7       11.7        0.0        0.0        0.0        0.0        0.0        0.0        0.0        0.0        0.0        0.0        0.0        0.0     14.9      15.5      18.6      26.7      34.7    391.85
    21     8  2011    52     2     234.8    11.6      1.7    0.0   11.5    0.1      0.0      0.0   -9.90      0.5      0.5    100     14.5     14.5   100     15.0    15.0     100     17.2    1.50      0      0      0      0      0    92.1    92.1      0     1.01     14.5     14.5     14.5   100    34.3     6.879    -9.9    0.000    0.000      99        0.00    0.000    0.000     234.8    234.8    1.50   142.1     632.8     174.7     174.7     109.4     109.4      36.8    0.000     0.000     0.000     0.000     0.000    1.50     0.00    0.00      0   -9.90   -9.00        9.5        9.5        9.5        9.5        9.5        9.5        9.5        9.5        9.5       11.7       11.7       11.7        0.0        0.0        0.0        0.0        0.0        0.0        0.0        0.0        0.0        0.0        0.0        0.0     11.6      14.3      20.5      27.2      34.0    391.85
    22     8  2011    53     2     235.1     4.5     11.0    0.0    4.5    0.0      0.0      0.0   -9.90      0.4      0.4    100     14.8     14.8   100     15.2    15.2     100     17.5    1.52      0      0      0      0      0    92.5    92.5      0     1.02     14.8     14.8     14.8   100    34.3     7.227    -9.9    0.000    0.000      99        0.00    0.000    0.000     235.1    235.1    1.52   144.3     641.3     177.0     177.0     111.5     111.5      37.3    0.000     0.000     0.000     0.000     0.000    1.52     0.00    0.00      0   -9.90   -9.00        9.5        9.5        9.5        9.5        9.5        9.5        9.5        9.5        9.5       11.7       11.7       11.7        0.0        0.0        0.0        0.0        0.0        0.0        0.0        0.0        0.0        0.0        0.0        0.0      4.5      14.5      21.1      27.8      34.6    391.85
    23     8  2011    54     2     234.8     3.0     11.7    0.0    3.0    0.0      0.0      0.0   -9.90      0.4      0.4    100     14.6     14.6   100     15.0    15.0     100     16.3    1.54      0      0      0      0      0    92.9    92.9      0     1.02     14.6     14.6     14.6   100    34.3     7.576    -9.9    0.000    0.000      99        0.00    0.000    0.000     234.8    234.8    1.54   145.9     649.8     179.4     179.4     112.3     112.3      37.8    0.000     0.000     0.000     0.000     0.000    1.54     0.00    0.00      0   -9.90   -9.00        9.5        9.5        9.5        9.5        9.5        9.5        9.5        9.5        9.5       11.7       11.7       11.7        0.0        0.0        0.0        0.0        0.0        0.0        0.0        0.0        0.0        0.0        0.0        0.0      3.0      14.3      18.6      25.8      33.0    391.85
    24     8  2011    55     2     234.5     2.7     11.8    0.0    2.7    0.0      0.0      0.0   -9.90      0.4      0.4    100     14.5     14.5   100     14.9    14.9     100     16.3    1.56      0      0      0      0      0    93.2    93.2      0     1.02     14.5     14.5     14.5   100    34.3     7.926    -9.9    0.000    0.000      99        0.00    0.000    0.000     234.5    234.5    1.56   147.8     658.3     181.7     181.7     113.5     113.5      38.3    0.000     0.000     0.000     0.000     0.000    1.56     0.00    0.00      0   -9.90   -9.00        9.5        9.5        9.5        9.5        9.5        9.5        9.5        9.5        9.5       11.6       11.7       11.7        0.0        0.0        0.0        0.0        0.0        0.0        0.0        0.0        0.0        0.0        0.0        0.0      2.7      14.2      18.7      25.8      32.9    391.85
    25     8  2011    56     3     237.3     1.3     18.5    0.0    1.3    0.0      0.0      0.0   -9.90      0.4      0.4    100     16.6     16.6   100     17.0    17.0     100     16.9    1.58      5      0      0      0      0    93.5    93.5      0     1.02     16.6     16.6     16.6   100    34.3     8.276    -9.9    0.000    0.000      99        0.00    0.000    0.000     237.3    237.3    1.58   153.3     666.7     184.0     184.0     121.7     121.7      38.8    0.000     0.000     0.000     0.000     0.000    1.58     0.00    0.00      0   -9.90   -9.00        9.7        9.7        9.7        9.7        9.7        9.7        9.7        9.7        9.7       11.4       11.7       11.7        0.0        0.0        0.0        0.0        0.0        0.0        0.0        0.0        0.0        0.0        0.0        0.0      1.3      16.3      19.8      28.1      36.5    391.85
    26     8  2011    57     3     236.6     0.6     15.8    0.0    0.6    0.0      0.0      0.0   -9.90      0.4      0.4    100     16.7     16.7   100     17.1    17.1     100     16.6    1.60      9      0      0      0      0    93.7    93.7      0     1.02     16.7     16.7     16.7   100    34.3     8.627    -9.9    0.000    0.000      99        0.00    0.000    0.000     236.6    236.6    1.60   155.6     675.1     186.4     186.4     123.5     123.5      39.3    0.000     0.000     0.000     0.000     0.000    1.60     0.00    0.00      0   -9.90   -9.00        9.7        9.7        9.7        9.7        9.7        9.7        9.7        9.7        9.7       11.1       11.7       11.7        0.0        0.0        0.0        0.0        0.0        0.0        0.0        0.0        0.0        0.0        0.0        0.0      0.6      16.3      19.1      27.7      36.3    391.85
    27     8  2011    58     3     235.3     4.1     11.4    0.0    4.1    0.0      0.0      0.0   -9.90      0.3      0.3    100     16.5     16.5   100     16.8    16.8     100     16.0    1.62      0      0      0      0      0    93.8    93.8      0     1.02     16.5     16.5     16.5   100    34.3     8.978     1.5    0.136    0.151      99        0.02    0.000    0.000     235.3    235.3    1.62   157.1     683.5     188.7     188.7     124.2     124.2      39.8    0.000     0.000     0.000     0.000     0.000    1.62     0.00    0.00      0   -9.90   -9.00        9.7        9.7        9.7        9.7        9.7        9.7        9.7        9.7        9.7       10.7       11.7       11.7        0.0        0.0        0.0        0.0        0.0        0.0        0.0        0.0        0.0        0.0        0.0        0.0      4.1      16.1      18.1      26.8      35.5    391.85
    28     8  2011    59     3     230.4     2.0      7.5    0.0    2.0    0.0      0.0      0.0   -9.90      0.3      0.3    100     14.1     14.1   100     14.4    14.4     100     16.9    1.64      0      0      0      0      0    94.0    94.0      0     1.02     14.1     14.1     14.1   100    34.3     9.329     1.9    0.173    0.192      99        0.02    0.000    0.000     230.4    230.4    1.64   155.1     691.8     191.0     191.0     117.7     117.7      40.3    0.000     0.000     0.000     0.000     0.000    1.64     0.00    0.00      0   -9.90   -9.00        9.4        9.4        9.5        9.5        9.5        9.5        9.5        9.5        9.5       10.3       11.7       11.7        0.0        0.0        0.0        0.0        0.0        0.0        0.0        0.0        0.0        0.0        0.0        0.0      2.0      13.8      19.7      26.3      32.9    391.85
    29     8  2011    60     3     229.8     4.9      9.2    0.0    4.9    0.0      0.0      0.0   -9.90      0.3      0.3    100     14.3     14.3   100     14.6    14.6     100     17.8    1.66      0      0      0      0      0    94.0    94.0      0     1.03     14.3     14.3     14.3   100    34.3     9.681     2.3    0.219    0.243      99        0.03    0.000    0.000     229.8    229.8    1.66   157.0     700.1     193.3     193.3     119.8     119.8      40.8    0.000     0.000     0.000     0.000     0.000    1.66     0.00    0.00      0   -9.90   -9.00        9.4        9.4        9.5        9.5        9.5        9.5        9.5        9.5        9.5        9.9       11.7       11.7        0.0        0.0        0.0        0.0        0.0        0.0        0.0        0.0        0.0        0.0        0.0        0.0      4.9      14.0      21.6      27.9      34.2    391.85
    30     8  2011    61     3     231.5    10.9      6.7    0.0   10.9    0.0      0.0      0.0   -9.90      0.2      0.2    100     15.8     15.8   100     16.0    16.0     100     16.5    1.68      0      0      0      0      0    95.3    95.3      0     1.03     15.8     15.8     15.8   100    34.3    10.035     2.8    0.277    0.308      99        0.04    0.000    0.000     231.5    231.5    1.68   160.9     708.4     195.5     195.5     125.8     125.8      41.3    0.000     0.000     0.000     0.000     0.000    1.68     0.00    0.00      0   -9.90   -9.00        9.6        9.6        9.6        9.6        9.6        9.6        9.6        9.6        9.6        9.8       11.7       11.7        0.0        0.0        0.0        0.0        0.0        0.0        0.0        0.0        0.0        0.0        0.0        0.0     10.9      15.3      18.9      26.8      34.7    391.85
    31     8  2011    62     3     229.7     3.5      9.6    0.0    3.5    0.0      0.0      0.0   -9.90      0.1      0.1    100     14.8     14.8   100     15.0    15.0     100     17.2    1.70     -9      0      0      0      0    95.4    95.4      0     1.03     14.8     14.8     14.8   100    34.3    10.389     3.4    0.349    0.388      99        0.05    0.000    0.000     229.7    229.7    1.70   161.1     716.6     197.8     197.8     124.0     124.0      41.8    0.000     0.000     0.000     0.000     0.000    1.70     0.00    0.00      0   -9.90   -9.00        9.5        9.5        9.5        9.5        9.5        9.5        9.5        9.5        9.5        9.6       11.7       11.7        0.0        0.0        0.0        0.0        0.0        0.0        0.0        0.0        0.0        0.0        0.0        0.0      3.5      14.4      20.4      27.3      34.2    391.85
     1     9  2011    63     3     228.0     9.5      3.0    0.0    9.5    0.0      0.0      0.0   -9.90      0.1      0.1    100     14.0     14.0   100     14.1    14.1     100     16.7    1.71     -9      0      0      0      0    95.5    95.5      0     1.03     14.0     14.0     14.0   100    34.3    10.742     4.1    0.438    0.487      99        0.06    0.000    0.000     228.0    228.0    1.71   161.4     724.8     200.1     200.1     122.5     122.5      42.3    0.000     0.000     0.000     0.000     0.000    1.71     0.00    0.00      0   -9.90   -9.00        9.4        9.4        9.4        9.4        9.4        9.4        9.4        9.4        9.4        9.5       11.7       11.7        0.0        0.0        0.0        0.0        0.0        0.0        0.0        0.0        0.0        0.0        0.0        0.0      9.5      13.6      19.4      25.9      32.4    391.85
     2     9  2011    64     3     232.2    14.8      6.0    0.0   14.6    0.2      0.0      0.0   -9.90      0.1      0.1    100     16.3     16.3   100     16.5    16.5     100     17.2    1.73     -9      0      0      0      0    95.6    95.6      0     1.03     16.3     16.3     16.3   100    34.3    11.094     4.9    0.548    0.608      99        0.07    0.000    0.000     232.2    232.2    1.73   167.3     732.9     202.3     202.3     132.5     132.5      42.7    0.000     0.000     0.000     0.000     0.000    1.73     0.00    0.00      0   -9.90   -9.00        9.6        9.6        9.7        9.7        9.7        9.7        9.7        9.7        9.7        9.6       11.7       11.7        0.0        0.0        0.0        0.0        0.0        0.0        0.0        0.0        0.0        0.0        0.0        0.0     14.8      15.9      20.5      28.5      36.5    391.85
     3     9  2011    65     3     231.8    14.5      0.0    0.0   14.3    0.2      0.0      0.0   -9.90      0.1      0.1    100     14.7     14.7   100     14.8    14.8     100     16.9    1.75     -9      0      0      0      0    95.6    95.6      0     1.02     14.7     14.7     14.7   100    34.3    11.446     5.9    0.681    0.756      99        0.08    0.000    0.000     231.8    231.8    1.75   168.7     741.1     204.6     204.6     128.0     128.0      43.2    0.000     0.000     0.000     0.000     0.000    1.75     0.00    0.00      0   -9.90   -9.00       21.3        6.8        6.9        7.4        9.7        9.7        9.7        9.7        9.7        9.6       11.7       11.7        0.0        0.0        0.0        0.0        0.0        0.0        0.0        0.0        0.0        0.0        0.0        0.0     14.5      14.3      19.8      26.8      33.8    391.85
     4     9  2011    66     3     230.6     3.1     11.1    0.0    3.1    0.0      0.0      0.0   -9.90      0.1      0.1    100     15.3     15.3   100     15.4    15.4     100     17.2    1.77     -9      0      0      0      0    95.7    95.7      0     1.02     15.3     15.3     15.3   100    34.3    11.796     7.1    0.841    0.935      99        0.10    0.000    0.000     230.6    230.6    1.77   169.4     749.2     206.8     206.8     131.9     131.9      43.7    0.000     0.000     0.000     0.000     0.000    1.77     0.00    0.00      0   -9.90   -9.00        9.5        9.5        9.6        9.6        9.6        9.6        9.6        9.6        9.6        9.6       11.7       11.7        0.0        0.0        0.0        0.0        0.0        0.0        0.0        0.0        0.0        0.0        0.0        0.0      3.1      15.0      20.4      27.8      35.1    391.85
     5     9  2011    67     3     229.7     4.1     10.0    0.0    4.1    0.0      0.0      0.0   -9.90      0.1      0.1    100     14.8     14.8   100     14.9    14.9     100     16.8    1.79     -9      0      0      0      0    95.7    95.7      0     1.02     14.8     14.8     14.8   100    34.3    12.146     8.5    1.033    1.148      99        0.12    0.000    0.000     229.7    229.7    1.79   170.4     757.2     209.0     209.0     131.7     131.7      44.2    0.000     0.000     0.000     0.000     0.000    1.79     0.00    0.00      0   -9.90   -9.00        9.5        9.5        9.5        9.5        9.5        9.5        9.5        9.5        9.5        9.5       11.7       11.7        0.0        0.0        0.0        0.0        0.0        0.0        0.0        0.0        0.0        0.0        0.0        0.0      4.1      14.6      19.6      26.8      34.1    391.85
     6     9  2011    68     3     229.5    13.0      1.7    0.0   12.9    0.1      0.0      0.0   -9.90      0.1      0.1    100     14.8     14.8   100     14.9    14.9     100     17.0    1.81     -9      0      0      0      0    95.8    95.8      0     1.02     14.8     14.8     14.8   100    34.3    12.495    10.0    1.253    1.392      99        0.14    0.000    0.000     229.5    229.5    1.81   172.4     765.3     211.2     211.2     133.1     133.1      44.6    0.000     0.000     0.000     0.000     0.000    1.81     0.00    0.00      0   -9.90   -9.00        9.5        9.5        9.5        9.5        9.5        9.5        9.5        9.5        9.5        9.5       11.6       11.7        0.0        0.0        0.0        0.0        0.0        0.0        0.0        0.0        0.0        0.0        0.0        0.0     13.0      14.5      20.1      27.2      34.4    391.85
     7     9  2011    69     4     227.4     0.3     11.7    0.0    0.3    0.0      0.0      0.0   -9.90      0.1      0.1    100     14.0     14.0   100     14.1    14.1     100     17.1    1.83     -9      0      0      0      0    95.8    95.8      0     1.01     14.0     14.0     14.0   100    34.3    12.842    11.6    1.484    1.649      99        0.17    0.000    0.000     227.4    227.4    1.83   173.0     773.3     213.5     213.5     131.5     131.5      45.1    0.000     0.000     0.000     0.000     0.000    1.83     0.00    0.00      0   -9.90   -9.00        9.4        9.4        9.5        9.5        9.5        9.5        9.5        9.5        9.5        9.5       11.4       11.7        0.0        0.0        0.0        0.0        0.0        0.0        0.0        0.0        0.0        0.0        0.0        0.0      0.3      13.8      20.2      26.8      33.3    391.85
     8     9  2011    70     4     227.8     3.4     11.7    0.0    3.4    0.0      0.0      0.0   -9.90      0.1      0.1    100     14.6     14.6   100     14.7    14.7     100     16.6    1.85     -9      0      0      0      0    95.8    95.8      0     1.01     14.6     14.6     14.6   100    34.3    13.189    13.1    1.725    1.917      99        0.19    0.000    0.000     227.8    227.8    1.85   176.3     781.3     215.7     215.7     135.4     135.4      45.6    0.000     0.000     0.000     0.000     0.000    1.85     0.00    0.00      0   -9.90   -9.00        9.5        9.5        9.5        9.5        9.5        9.5        9.5        9.5        9.5        9.5       11.0       11.7        0.0        0.0        0.0        0.0        0.0        0.0        0.0        0.0        0.0        0.0        0.0        0.0      3.4      14.4      19.1      26.5      33.8    391.85
     9     9  2011    71     4     227.1     2.6     11.5    0.0    2.6    0.0      0.0      0.0   -9.90      0.1      0.1    100     14.7     14.7   100     14.8    14.8     100     16.4    1.87     -9      0      0      0      0    95.9    95.9      0     1.01     14.7     14.7     14.7   100    34.3    13.535    14.6    1.977    2.197      99        0.22    0.000    0.000     227.1    227.1    1.87   178.3     789.2     217.9     217.9     137.4     137.4      46.1    0.000     0.000     0.000     0.000     0.000    1.87     0.00    0.00      0   -9.90   -9.00        9.5        9.5        9.5        9.5        9.5        9.5        9.5        9.5        9.5        9.5       10.6       11.7        0.0        0.0        0.0        0.0        0.0        0.0        0.0        0.0        0.0        0.0        0.0        0.0      2.6      14.6      18.9      26.4      33.9    391.85
    10     9  2011    72     4     226.7    13.6      1.1    0.0   13.4    0.1      0.0      0.0   -9.90      0.1      0.1    100     14.9     14.9   100     15.0    15.0     100     16.1    1.89     -9      0      0      0      0    95.9    95.9      0     1.01     14.9     14.9     14.9   100    34.3    13.880    16.1    2.239    2.488      99        0.24    0.000    0.000     226.7    226.7    1.89   180.5     797.2     220.0     220.0     139.7     139.7      46.5    0.000     0.000     0.000     0.000     0.000    1.89     0.00    0.00      0   -9.90   -9.00        9.5        9.5        9.6        9.6        9.6        9.6        9.6        9.6        9.6        9.6       10.3       11.7        0.0        0.0        0.0        0.0        0.0        0.0        0.0        0.0        0.0        0.0        0.0        0.0     13.6      14.8      18.1      26.0      34.0    391.85
    11     9  2011    73     4     224.3     1.7     10.1    0.0    1.7    0.0      0.0      0.0   -9.90      0.1      0.1    100     14.1     14.1   100     14.1    14.1     100     16.6    1.90     -9      0      0      0      0    95.9    95.9      0     1.00     14.1     14.1     14.1   100    34.3    14.225    17.7    2.512    2.791      99        0.27    0.000    0.000     224.3    224.3    1.90   180.5     805.1     222.2     222.2     137.9     137.9      47.0    0.000     0.000     0.000     0.000     0.000    1.90     0.00    0.00      0   -9.90   -9.00        9.4        9.4        9.5        9.5        9.5        9.5        9.5        9.5        9.5        9.5        9.9       11.7        0.0        0.0        0.0        0.0        0.0        0.0        0.0        0.0        0.0        0.0        0.0        0.0      1.7      14.0      19.2      26.3      33.3    391.85
    12     9  2011    74     4     223.7     2.5     11.0    0.0    2.5    0.0      0.0      0.0   -9.90      0.1      0.1    100     14.0     14.0   100     14.1    14.1     100     17.3    1.92     -9      0      0      0      0    95.9    95.9      0     1.00     14.0     14.0     14.0   100    34.3    14.568    19.2    2.795    3.105     100        0.29    0.000    0.000     223.7    223.7    1.92   182.1     813.0     224.4     224.4     139.2     139.2      47.5    0.000     0.000     0.000     0.000     0.000    1.92     0.00    0.00      0   -9.90   -9.00        9.4        9.4        9.5        9.5        9.5        9.5        9.5        9.5        9.5        9.5        9.7       11.7        0.0        0.0        0.0        0.0        0.0        0.0        0.0        0.0        0.0        0.0        0.0        0.0      2.5      14.0      20.6      27.4      34.1    391.85
    13     9  2011    75     4     224.0     4.3     10.4    0.0    4.3    0.0      0.0      0.0   -9.90      0.1      0.1    100     14.3     14.3   100     14.4    14.4     100     16.3    1.94     -9      0      0      0      0    95.9    95.9      0     1.00     14.3     14.3     14.3   100    34.3    14.910    20.7    3.088    3.431     100        0.32    0.000    0.000     224.0    224.0    1.94   184.3     820.8     226.6     226.6     141.8     141.8      47.9    0.000     0.000     0.000     0.000     0.000    1.94     0.00    0.00      0   -9.90   -9.00        9.5        9.5        9.5        9.5        9.5        9.5        9.5        9.5        9.5        9.5        9.6       11.7        0.0        0.0        0.0        0.0        0.0        0.0        0.0        0.0        0.0        0.0        0.0        0.0      4.3      14.3      18.6      26.1      33.5    391.85
    14     9  2011    76     4     225.4     1.1     15.2    0.0    1.1    0.0      0.0      0.0   -9.90      0.2      0.2    100     14.8     14.8   100     14.9    14.9     100     17.2    1.96     -9      0     -9      0      0    95.3    95.3      0     0.98     14.8     14.8     14.8   100    34.3    15.248    22.2    3.390    3.767     100        0.35    0.000    0.000     225.4    225.4    1.96   187.4     828.6     228.7     228.7     146.1     146.1      48.4    0.000     0.000     0.000     0.000     0.000    1.96     0.00    0.00      0   -9.90   -9.00        9.5        9.5        9.6        9.6        9.6        9.6        9.6        9.6        9.6        9.6        9.6       11.7        0.0        0.0        0.0        0.0        0.0        0.0        0.0        0.0        0.0        0.0        0.0        0.0      1.1      15.0      20.4      28.0      35.6    391.85
    15     9  2011    77     4     226.3     1.4     14.7    0.0    1.4    0.0      0.0      0.0   -9.90      0.2      0.2    100     15.0     15.0   100     15.2    15.2     100     17.1    1.98     -9      0     -9      0      0    94.6    94.6      0     0.97     15.0     15.0     15.0   100    34.3    15.581    23.8    3.702    4.114     100        0.37    0.000    0.000     226.3    226.3    1.98   190.0     836.4     230.9     230.9     149.3     149.3      48.8    0.000     0.000     0.000     0.000     0.000    1.98     0.00    0.00      0   -9.90   -9.00        9.6        9.6        9.6        9.6        9.6        9.6        9.6        9.6        9.6        9.6        9.6       11.7        0.0        0.0        0.0        0.0        0.0        0.0        0.0        0.0        0.0        0.0        0.0        0.0      1.4      15.4      20.2      28.2      36.1    391.85
    16     9  2011    78     4     221.4     3.3      4.6    0.0    3.3    0.0      0.0      0.0   -9.90      0.3      0.3    100     12.5     12.5   100     12.8    12.8     100     17.5    2.00     -9      0     -9      0      0    93.9    93.9      0     0.96     12.5     12.5     12.5   100    34.3    15.908    25.3    4.023    4.470     100        0.40    0.000    0.000     221.4    221.4    2.00   187.0     844.2     233.0     233.0     140.8     140.8      49.3    0.000     0.000     0.000     0.000     0.000    2.00     0.00    0.00      0   -9.90   -9.00        9.3        9.3        9.4        9.4        9.4        9.4        9.4        9.4        9.4        9.4        9.4       11.7        0.0        0.0        0.0        0.0        0.0        0.0        0.0        0.0        0.0        0.0        0.0        0.0      3.3      13.1      21.1      27.1      33.2    391.85
    17     9  2011    79     4     224.1     3.8     12.9    0.0    3.8    0.0      0.0      0.0   -9.90      0.4      0.4    100     13.6     13.6   100     14.0    14.0     100     17.1    2.01     -9      0     -9      0      0    93.0    93.0      0     0.94     13.6     13.6     13.6   100    34.3    16.230    26.8    4.352    4.835     100        0.43    0.000    0.000     224.1    224.1    2.01   191.5     852.0     235.2     235.2     147.9     147.9      49.8    0.000     0.000     0.000     0.000     0.000    2.01     0.00    0.00      0   -9.90   -9.00        9.5        9.5        9.5        9.5        9.5        9.5        9.5        9.5        9.5        9.5        9.5       11.7        0.0        0.0        0.0        0.0        0.0        0.0        0.0        0.0        0.0        0.0        0.0        0.0      3.8      14.5      20.3      27.5      34.8    391.85
    18     9  2011    80     4     223.1     1.7     10.6    0.0    1.7    0.0      0.0      0.0   -9.90      0.4      0.4    100     12.8     12.8   100     13.3    13.3     100     17.1    2.03     -9      0     -9      0      0    92.0    92.0      0     0.92     12.8     12.8     12.8   100    34.3    16.546    28.3    4.689    5.210     100        0.45    0.000    0.000     223.1    223.1    2.03   192.2     859.7     237.3     237.3     147.1     147.1      50.2    0.000     0.000     0.000     0.000     0.000    2.03     0.00    0.00      0   -9.90   -9.00        9.4        9.4        9.5        9.5        9.5        9.5        9.5        9.5        9.5        9.5        9.5       11.7        0.0        0.0        0.0        0.0        0.0        0.0        0.0        0.0        0.0        0.0        0.0        0.0      1.7      14.0      20.2      27.1      34.0    391.85
    19     9  2011    81     4     219.8     3.4      5.1    0.0    3.4    0.0      0.0      0.0   -9.90      0.5      0.5    100     11.2     11.2   100     11.7    11.7     100     16.7    2.05     -9      0     -9      0      0    90.9    90.9      0     0.90     11.2     11.2     11.2   100    34.3    16.854    29.9    5.033    5.593     100        0.48    0.000    0.000     219.8    219.8    2.05   190.7     867.4     239.4     239.4     142.0     142.0      50.7    0.000     0.000     0.000     0.000     0.000    2.05     0.00    0.00      0   -9.90   -9.00        9.3        9.3        9.3        9.3        9.3        9.3        9.3        9.3        9.3        9.3        9.3       11.7        0.0        0.0        0.0        0.0        0.0        0.0        0.0        0.0        0.0        0.0        0.0        0.0      3.4      12.5      19.5      25.5      31.5    391.85
    20     9  2011    82     4     223.7     3.9     13.3    0.0    3.9    0.0      0.0      0.0   -9.90      0.7      0.7    100     12.7     12.7   100     13.4    13.4     100     17.0    2.07     -9      0     -9      0      0    89.6    89.6      0     0.88     12.7     12.7     12.7   100    34.3    17.155    31.4    5.385    5.983     100        0.51    0.000    0.000     223.7    223.7    2.07   197.1     875.1     241.5     241.5     151.8     151.8      51.1    0.000     0.000     0.000     0.000     0.000    2.07     0.00    0.00      0   -9.90   -9.00        9.5        9.5        9.5        9.5        9.5        9.5        9.5        9.5        9.5        9.5        9.5       11.5        0.0        0.0        0.0        0.0        0.0        0.0        0.0        0.0        0.0        0.0        0.0        0.0      3.9      14.4      20.1      27.4      34.8    391.85
    21     9  2011    83     4     223.6     2.7     10.6    0.0    2.7    0.0      0.0      0.0   -9.90      0.8      0.8    100     12.6     12.6   100     13.4    13.4     100     17.9    2.09     -9      0     -9      0      0    88.2    88.2      0     0.85     12.6     12.6     12.6   100    34.3    17.447    32.9    5.743    6.381     100        0.53    0.000    0.000     223.6    223.6    2.09   199.6     882.8     243.7     243.7     154.4     154.4      51.6    0.000     0.000     0.000     0.000     0.000    2.09     0.00    0.00      0   -9.90   -9.00        9.5        9.5        9.6        9.6        9.6        9.6        9.6        9.6        9.6        9.6        9.6       11.2        0.0        0.0        0.0        0.0        0.0        0.0        0.0        0.0        0.0        0.0        0.0        0.0      2.7      14.7      21.9      29.0      36.2    391.85
    22     9  2011    84     4     220.0     1.0      7.4    0.0    1.0    0.0      0.0      0.0   -9.90      0.9      0.9    100     11.2     11.2   100     12.1    12.1     100     16.4    2.10     -9      0     -9      0      0    86.6    86.6      0     0.83     11.2     11.2     11.2   100    34.3    17.730    34.4    6.107    6.785     100        0.56    0.000    0.000     220.0    220.0    2.10   198.8     890.4     245.8     245.8     150.4     150.4      52.0    0.000     0.000     0.000     0.000     0.000    2.10     0.00    0.00      0   -9.90   -9.00        9.4        9.4        9.4        9.4        9.4        9.4        9.4        9.4        9.4        9.4        9.4       10.8        0.0        0.0        0.0        0.0        0.0        0.0        0.0        0.0        0.0        0.0        0.0        0.0      1.0      13.5      18.8      25.8      32.8    391.85
    23     9  2011    85     4     221.8     4.1     10.5    0.0    4.1    0.0      0.0      0.0   -9.90      1.1      1.1    100     11.8     11.8   100     12.9    12.9     100     17.3    2.12     -9      0     -9      0      0    84.8    84.8      0     0.80     11.8     11.8     11.8   100    34.3    18.003    36.0    6.475    7.195     100        0.59    0.000    0.000     221.8    221.8    2.12   203.2     898.0     247.9     247.9     157.3     157.3      52.5    0.000     0.000     0.000     0.000     0.000    2.12     0.00    0.00      0   -9.90   -9.00        9.5        9.5        9.6        9.6        9.6        9.6        9.6        9.6        9.6        9.6        9.6       10.5        0.0        0.0        0.0        0.0        0.0        0.0        0.0        0.0        0.0        0.0        0.0        0.0      4.1      14.8      20.7      28.2      35.8    391.85
    24     9  2011    86     4     218.7     3.6      5.1    0.0    3.6    0.0      0.0      0.0   -9.90      1.2      1.2    100     10.5     10.5   100     11.7    11.7     100     17.1    2.14     -9      0     -9      0      0    82.8    82.8      0     0.76     10.5     10.5     10.5   100    34.3    18.264    37.5    6.848    7.609     100        0.62    0.000    0.000     218.7    218.7    2.14   202.7     905.6     250.0     250.0     154.2     154.2      52.9    0.000     0.000     0.000     0.000     0.000    2.14     0.00    0.00      0   -9.90   -9.00        9.4        9.4        9.5        9.5        9.5        9.5        9.5        9.5        9.5        9.5        9.5       10.1        0.0        0.0        0.0        0.0        0.0        0.0        0.0        0.0        0.0        0.0        0.0        0.0      3.6      13.8      20.3      27.2      34.1    391.85
    25     9  2011    87     4     214.1     4.0      1.4    0.0    4.0    0.0      0.0      0.0   -9.90      1.2      1.2    100      8.8      8.8   100     10.0    10.0     100     17.7    2.16     -9      0     -9      0      0    80.5    80.5      0     0.73      8.8      8.8      8.8   100    34.3    18.514    39.0    7.224    8.027     100        0.64    0.000    0.000     214.1    214.1    2.16   200.4     913.2     252.1     252.1     147.7     147.7      53.4    0.000     0.000     0.000     0.000     0.000    2.16     0.00    0.00      0   -9.90   -9.00        9.2        9.2        9.3        9.3        9.3        9.3        9.3        9.3        9.3        9.3        9.3        9.7        0.0        0.0        0.0        0.0        0.0        0.0        0.0        0.0        0.0        0.0        0.0        0.0      4.0      12.1      21.4      26.9      32.3    391.85
[...]
    10    12  2015    -9     0     215.4     9.1      0.0    0.0    9.1    0.0      0.0      0.0   -9.90     12.7      7.0     55      0.0      0.0   100     12.7     7.0      55     17.4    2.28     -9     -9     -9      0     -9     0.0     0.0      0    -9.00      0.0      0.0      0.0   100    34.5    19.993    48.1    9.626   10.695     100        0.80    0.000    0.000     215.4    215.4    2.28   213.7     965.7     266.5     266.5     153.6     172.7      56.5    0.000     0.000     0.000     0.000     0.000    2.28     0.00    0.00      0   -9.90   -9.00        4.5        9.0        9.6        9.6        9.6        9.6        9.6        9.6        9.6        9.6        9.6        9.6        0.0        0.0        0.0        0.0        0.0        0.0        0.0        0.0        0.0        0.0        0.0        0.0      9.1      11.6      20.8      27.9      35.0    401.01
    11    12  2015    -9     0     225.1    18.3      0.0    0.0   18.3    0.0      0.0      0.0   -9.90     11.1      8.5     77      0.0      0.0   100     11.1     8.5      77     17.4    2.28     -9     -9     -9      0     -9     0.0     0.0      0    -9.00      0.0      0.0      0.0   100    34.5    19.993    48.1    9.626   10.695     100        0.80    0.000    0.000     225.1    225.1    2.28   223.4     965.7     266.5     266.5     146.4     172.7      56.5    0.000     0.000     0.000     0.000     0.000    2.28     0.00    0.00      0   -9.90   -9.00       14.3        9.0        9.6        9.6        9.6        9.6        9.6        9.6        9.6        9.6        9.6        9.6        0.0        0.0        0.0        0.0        0.0        0.0        0.0        0.0        0.0        0.0        0.0        0.0     18.3      10.1      20.9      26.6      32.4    401.01
    12    12  2015    -9     0     222.8     6.7      0.0    0.0    6.7    0.0      0.0      0.0   -9.90     12.9      9.0     70      0.0      0.0   100     12.9     9.0      70     16.6    2.28     -9     -9     -9      0     -9     0.0     0.0      0    -9.00      0.0      0.0      0.0   100    34.5    19.993    48.1    9.626   10.695     100        0.80    0.000    0.000     222.8    222.8    2.28   221.1     965.7     266.5     266.5     154.4     172.7      56.5    0.000     0.000     0.000     0.000     0.000    2.28     0.00    0.00      0   -9.90   -9.00        9.7       10.5        9.6        9.6        9.6        9.6        9.6        9.6        9.6        9.6        9.6        9.6        0.0        0.0        0.0        0.0        0.0        0.0        0.0        0.0        0.0        0.0        0.0        0.0      6.7      11.7      19.1      26.8      34.5    401.01
    13    12  2015    -9     0     218.1     1.8      0.0    0.0    1.8    0.0      0.0      0.0   -9.90     12.4      6.5     53      0.0      0.0   100     12.4     6.5      53     16.8    2.28     -9     -9     -9      0     -9     0.0     0.0      0    -9.00      0.0      0.0      0.0   100    34.5    19.993    48.1    9.626   10.695     100        0.80    0.000    0.000     218.1    218.1    2.28   216.4     965.7     266.5     266.5     151.9     172.7      56.5    0.000     0.000     0.000     0.000     0.000    2.28     0.00    0.00      0   -9.90   -9.00        4.9       10.5        9.6        9.6        9.6        9.6        9.6        9.6        9.6        9.6        9.6        9.6        0.0        0.0        0.0        0.0        0.0        0.0        0.0        0.0        0.0        0.0        0.0        0.0      1.8      11.2      19.6      26.7      33.8    401.01
    14    12  2015    -9     0     216.2     3.4      0.0    0.0    3.4    0.0      0.0      0.0   -9.90     11.8      5.2     45      0.0      0.0   100     11.8     5.2      45     16.5    2.28     -9     -9     -9      0     -9     0.0     0.0      0    -9.00      0.0      0.0      0.0   100    34.5    19.993    48.1    9.626   10.695     100        0.80    0.000    0.000     216.2    216.2    2.28   214.5     965.7     266.5     266.5     149.3     172.7      56.5    0.000     0.000     0.000     0.000     0.000    2.28     0.00    0.00      0   -9.90   -9.00        3.0       10.5        9.6        9.6        9.6        9.6        9.6        9.6        9.6        9.6        9.6        9.6        0.0        0.0        0.0        0.0        0.0        0.0        0.0        0.0        0.0        0.0        0.0        0.0      3.4      10.7      19.1      25.8      32.5    401.01
    15    12  2015    -9     0     215.8     5.1      0.0    0.0    5.1    0.0      0.0      0.0   -9.90     12.3      5.5     44      0.0      0.0   100     12.3     5.5      44     17.2    2.28     -9     -9     -9      0     -9     0.0     0.0      0    -9.00      0.0      0.0      0.0   100    34.5    19.993    48.1    9.626   10.695     100        0.80    0.000    0.000     215.8    215.8    2.28   214.1     965.7     266.5     266.5     151.7     172.7      56.5    0.000     0.000     0.000     0.000     0.000    2.28     0.00    0.00      0   -9.90   -9.00        2.6       10.5        9.6        9.6        9.6        9.6        9.6        9.6        9.6        9.6        9.6        9.6        0.0        0.0        0.0        0.0        0.0        0.0        0.0        0.0        0.0        0.0        0.0        0.0      5.1      11.2      20.4      27.3      34.1    401.01
    16    12  2015    -9     0     214.5     1.3      0.0    0.0    1.3    0.0      0.0      0.0   -9.90     13.7      2.6     19      0.0      0.0   100     13.7     2.6      19     17.1    2.28     -9     -9     -9      0     -9     0.0     0.0      0    -9.00      0.0      0.0      0.0   100    34.5    19.993    48.1    9.626   10.695     100        0.80    0.000    0.000     214.5    214.5    2.28   212.9     965.7     266.5     266.5     157.7     172.7      56.5    0.000     0.000     0.000     0.000     0.000    2.28     0.00    0.00      0   -9.90   -9.00        1.3       10.5        9.6        9.6        9.6        9.6        9.6        9.6        9.6        9.6        9.6        9.6        0.0        0.0        0.0        0.0        0.0        0.0        0.0        0.0        0.0        0.0        0.0        0.0      1.3      12.4      20.3      28.4      36.5    401.01
    17    12  2015    -9     0     213.9     3.5      0.0    0.0    3.5    0.0      0.0      0.0   -9.90     12.2      4.1     34      0.0      0.0   100     12.2     4.1      34     17.2    2.28     -9     -9     -9      0     -9     0.0     0.0      0    -9.00      0.0      0.0      0.0   100    34.5    19.993    48.1    9.626   10.695     100        0.80    0.000    0.000     213.9    213.9    2.28   212.2     965.7     266.5     266.5     151.3     172.7      56.5    0.000     0.000     0.000     0.000     0.000    2.28     0.00    0.00      0   -9.90   -9.00        1.2       10.2        9.6        9.6        9.6        9.6        9.6        9.6        9.6        9.6        9.6        9.6        0.0        0.0        0.0        0.0        0.0        0.0        0.0        0.0        0.0        0.0        0.0        0.0      3.5      11.1      20.5      27.3      34.0    401.01
    18    12  2015    -9     0     215.3     6.8      0.0    0.0    6.8    0.0      0.0      0.0   -9.90     12.6      5.4     43      0.0      0.0   100     12.6     5.4      43     17.2    2.28     -9     -9     -9      0     -9     0.0     0.0      0    -9.00      0.0      0.0      0.0   100    34.5    19.993    48.1    9.626   10.695     100        0.80    0.000    0.000     215.3    215.3    2.28   213.6     965.7     266.5     266.5     152.9     172.7      56.5    0.000     0.000     0.000     0.000     0.000    2.28     0.00    0.00      0   -9.90   -9.00        2.6       10.2        9.6        9.6        9.6        9.6        9.6        9.6        9.6        9.6        9.6        9.6        0.0        0.0        0.0        0.0        0.0        0.0        0.0        0.0        0.0        0.0        0.0        0.0      6.8      11.4      20.4      27.5      34.6    401.01
    19    12  2015    -9     0     216.4     7.6      0.0    0.0    7.6    0.0      0.0      0.0   -9.90     12.7      6.6     52      0.0      0.0   100     12.7     6.6      52     17.9    2.28     -9     -9     -9      0     -9     0.0     0.0      0    -9.00      0.0      0.0      0.0   100    34.5    19.993    48.1    9.626   10.695     100        0.80    0.000    0.000     216.4    216.4    2.28   214.7     965.7     266.5     266.5     153.2     172.7      56.5    0.000     0.000     0.000     0.000     0.000    2.28     0.00    0.00      0   -9.90   -9.00        3.7       10.2        9.6        9.6        9.6        9.6        9.6        9.6        9.6        9.6        9.6        9.6        0.0        0.0        0.0        0.0        0.0        0.0        0.0        0.0        0.0        0.0        0.0        0.0      7.6      11.5      21.8      28.6      35.5    401.01
    20    12  2015    -9     0     214.9     2.5      0.0    0.0    2.5    0.0      0.0      0.0   -9.90     12.7      3.9     31      0.0      0.0   100     12.7     3.9      31     17.2    2.28     -9     -9     -9      0     -9     0.0     0.0      0    -9.00      0.0      0.0      0.0   100    34.5    19.993    48.1    9.626   10.695     100        0.80    0.000    0.000     214.9    214.9    2.28   213.2     965.7     266.5     266.5     153.3     172.7      56.5    0.000     0.000     0.000     0.000     0.000    2.28     0.00    0.00      0   -9.90   -9.00        2.2       10.2        9.6        9.6        9.6        9.6        9.6        9.6        9.6        9.6        9.6        9.6        0.0        0.0        0.0        0.0        0.0        0.0        0.0        0.0        0.0        0.0        0.0        0.0      2.5      11.5      20.4      27.6      34.8    401.01
    21    12  2015    -9     0     215.7     6.2      0.0    0.0    6.2    0.0      0.0      0.0   -9.90     11.1      5.4     48      0.0      0.0   100     11.1     5.4      48     17.1    2.28     -9     -9     -9      0     -9     0.0     0.0      0    -9.00      0.0      0.0      0.0   100    34.5    19.993    48.1    9.626   10.695     100        0.80    0.000    0.000     215.7    215.7    2.28   214.0     965.7     266.5     266.5     146.5     172.7      56.5    0.000     0.000     0.000     0.000     0.000    2.28     0.00    0.00      0   -9.90   -9.00        3.0       10.2        9.6        9.6        9.6        9.6        9.6        9.6        9.6        9.6        9.6        9.6        0.0        0.0        0.0        0.0        0.0        0.0        0.0        0.0        0.0        0.0        0.0        0.0      6.2      10.1      20.2      26.1      32.0    401.01
    22    12  2015    -9     0     215.9     6.3      0.0    0.0    6.3    0.0      0.0      0.0   -9.90     13.2      6.1     47      0.0      0.0   100     13.2     6.1      47     17.4    2.28     -9     -9     -9      0     -9     0.0     0.0      0    -9.00      0.0      0.0      0.0   100    34.5    19.993    48.1    9.626   10.695     100        0.80    0.000    0.000     215.9    215.9    2.28   214.2     965.7     266.5     266.5     155.5     172.7      56.5    0.000     0.000     0.000     0.000     0.000    2.28     0.00    0.00      0   -9.90   -9.00        3.2       10.2        9.6        9.6        9.6        9.6        9.6        9.6        9.6        9.6        9.6        9.6        0.0        0.0        0.0        0.0        0.0        0.0        0.0        0.0        0.0        0.0        0.0        0.0      6.3      12.0      20.8      28.3      35.8    401.01
    23    12  2015    -9     0     214.5     0.8      0.0    0.0    0.8    0.0      0.0      0.0   -9.90     12.4      2.2     17      0.0      0.0   100     12.4     2.2      17     16.6    2.28     -9     -9     -9      0     -9     0.0     0.0      0    -9.00      0.0      0.0      0.0   100    34.5    19.993    48.1    9.626   10.695     100        0.80    0.000    0.000     214.5    214.5    2.28   212.8     965.7     266.5     266.5     152.3     172.7      56.5    0.000     0.000     0.000     0.000     0.000    2.28     0.00    0.00      0   -9.90   -9.00        1.8       10.2        9.6        9.6        9.6        9.6        9.6        9.6        9.6        9.6        9.6        9.6        0.0        0.0        0.0        0.0        0.0        0.0        0.0        0.0        0.0        0.0        0.0        0.0      0.8      11.3      19.1      26.4      33.7    401.01
    24    12  2015    -9     0     219.0    13.1      0.0    0.0   13.1    0.0      0.0      0.0   -9.90     13.0      8.6     66      0.0      0.0   100     13.0     8.6      66     17.1    2.28     -9     -9     -9      0     -9     0.0     0.0      0    -9.00      0.0      0.0      0.0   100    34.5    19.993    48.1    9.626   10.695     100        0.80    0.000    0.000     219.0    219.0    2.28   217.3     965.7     266.5     266.5     154.8     172.7      56.5    0.000     0.000     0.000     0.000     0.000    2.28     0.00    0.00      0   -9.90   -9.00        6.4       10.2        9.6        9.6        9.6        9.6        9.6        9.6        9.6        9.6        9.6        9.6        0.0        0.0        0.0        0.0        0.0        0.0        0.0        0.0        0.0        0.0        0.0        0.0     13.1      11.8      20.1      27.6      35.2    401.01
    25    12  2015    -9     0     216.3     2.9      0.0    0.0    2.9    0.0      0.0      0.0   -9.90     11.8      5.6     47      0.0      0.0   100     11.8     5.6      47     17.1    2.28     -9     -9     -9      0     -9     0.0     0.0      0    -9.00      0.0      0.0      0.0   100    34.5    19.993    48.1    9.626   10.695     100        0.80    0.000    0.000     216.3    216.3    2.28   214.7     965.7     266.5     266.5     149.5     172.7      56.5    0.000     0.000     0.000     0.000     0.000    2.28     0.00    0.00      0   -9.90   -9.00        3.6       10.2        9.6        9.6        9.6        9.6        9.6        9.6        9.6        9.6        9.6        9.6        0.0        0.0        0.0        0.0        0.0        0.0        0.0        0.0        0.0        0.0        0.0        0.0      2.9      10.8      20.2      26.7      33.2    401.01
    26    12  2015    -9     0     215.0     3.4      0.0    0.0    3.4    0.0      0.0      0.0   -9.90     12.5      4.7     38      0.0      0.0   100     12.5     4.7      38     17.2    2.28     -9     -9     -9      0     -9     0.0     0.0      0    -9.00      0.0      0.0      0.0   100    34.5    19.993    48.1    9.626   10.695     100        0.80    0.000    0.000     215.0    215.0    2.28   213.4     965.7     266.5     266.5     152.4     172.7      56.5    0.000     0.000     0.000     0.000     0.000    2.28     0.00    0.00      0   -9.90   -9.00        2.3       10.2        9.6        9.6        9.6        9.6        9.6        9.6        9.6        9.6        9.6        9.6        0.0        0.0        0.0        0.0        0.0        0.0        0.0        0.0        0.0        0.0        0.0        0.0      3.4      11.3      20.4      27.3      34.3    401.01
    27    12  2015    -9     0     216.5     8.0      0.0    0.0    8.0    0.0      0.0      0.0   -9.90     12.0      6.5     54      0.0      0.0   100     12.0     6.5      54     16.7    2.28     -9     -9     -9      0     -9     0.0     0.0      0    -9.00      0.0      0.0      0.0   100    34.5    19.993    48.1    9.626   10.695     100        0.80    0.000    0.000     216.5    216.5    2.28   214.8     965.7     266.5     266.5     150.5     172.7      56.5    0.000     0.000     0.000     0.000     0.000    2.28     0.00    0.00      0   -9.90   -9.00        3.8       10.2        9.6        9.6        9.6        9.6        9.6        9.6        9.6        9.6        9.6        9.6        0.0        0.0        0.0        0.0        0.0        0.0        0.0        0.0        0.0        0.0        0.0        0.0      8.0      10.9      19.5      26.3      33.1    401.01
    28    12  2015    -9     0     215.8     4.9      0.0    0.0    4.9    0.0      0.0      0.0   -9.90     12.0      5.6     47      0.0      0.0   100     12.0     5.6      47     16.8    2.28     -9     -9     -9      0     -9     0.0     0.0      0    -9.00      0.0      0.0      0.0   100    34.5    19.993    48.1    9.626   10.695     100        0.80    0.000    0.000     215.8    215.8    2.28   214.1     965.7     266.5     266.5     150.4     172.7      56.5    0.000     0.000     0.000     0.000     0.000    2.28     0.00    0.00      0   -9.90   -9.00        3.1       10.2        9.6        9.6        9.6        9.6        9.6        9.6        9.6        9.6        9.6        9.6        0.0        0.0        0.0        0.0        0.0        0.0        0.0        0.0        0.0        0.0        0.0        0.0      4.9      10.9      19.6      26.3      33.1    401.01
    29    12  2015    -9     0     214.7     4.0      0.0    0.0    4.0    0.0      0.0      0.0   -9.90     13.1      5.1     39      0.0      0.0   100     13.1     5.1      39     16.6    2.28     -9     -9     -9      0     -9     0.0     0.0      0    -9.00      0.0      0.0      0.0   100    34.5    19.993    48.1    9.626   10.695     100        0.80    0.000    0.000     214.7    214.7    2.28   213.0     965.7     266.5     266.5     155.1     172.7      56.5    0.000     0.000     0.000     0.000     0.000    2.28     0.00    0.00      0   -9.90   -9.00        2.0       10.2        9.6        9.6        9.6        9.6        9.6        9.6        9.6        9.6        9.6        9.6        0.0        0.0        0.0        0.0        0.0        0.0        0.0        0.0        0.0        0.0        0.0        0.0      4.0      11.9      19.2      27.0      34.7    401.01
    30    12  2015    -9     0     216.4     9.0      0.0    0.0    9.0    0.0      0.0      0.0   -9.90     13.9      7.3     53      0.0      0.0   100     13.9     7.3      53     16.6    2.28     -9     -9     -9      0     -9     0.0     0.0      0    -9.00      0.0      0.0      0.0   100    34.5    19.993    48.1    9.626   10.695     100        0.80    0.000    0.000     216.4    216.4    2.28   214.7     965.7     266.5     266.5     158.5     172.7      56.5    0.000     0.000     0.000     0.000     0.000    2.28     0.00    0.00      0   -9.90   -9.00        3.7       10.2        9.6        9.6        9.6        9.6        9.6        9.6        9.6        9.6        9.6        9.6        0.0        0.0        0.0        0.0        0.0        0.0        0.0        0.0        0.0        0.0        0.0        0.0      9.0      12.6      19.2      27.6      36.1    401.01
    31    12  2015    -9     0     215.1     3.3      0.0    0.0    3.3    0.0      0.0      0.0   -9.90     12.4      4.7     38      0.0      0.0   100     12.4     4.7      38     16.9    2.28     -9     -9     -9      0     -9     0.0     0.0      0    -9.00      0.0      0.0      0.0   100    34.5    19.993    48.1    9.626   10.695     100        0.80    0.000    0.000     215.1    215.1    2.28   213.4     965.7     266.5     266.5     151.9     172.7      56.5    0.000     0.000     0.000     0.000     0.000    2.28     0.00    0.00      0   -9.90   -9.00        2.4       10.2        9.6        9.6        9.6        9.6        9.6        9.6        9.6        9.6        9.6        9.6        0.0        0.0        0.0        0.0        0.0        0.0        0.0        0.0        0.0        0.0        0.0        0.0      3.3      11.2      19.7      26.7      33.7    401.01
