AquaCrop 7.1 (August 2023) - Output created on (date) : 29-01-2026   at (time) : 01:20:22

   Run:   1
   Day Month  Year   DAP Stage   WC(2.30)   Rain     Irri   Surf   Infilt   RO    Drain       CR    Zgwt       Ex       E     E/Ex     Trx       Tr  Tr/Trx    ETx      ET  ET/ETx      GD       Z     StExp  StSto  StSen StSalt StWeed   CC      CCw     StTr  Kc(Tr)     Trx       Tr      TrW  Tr/Trx   WP    Biomass     HI    Y(dry)  Y(fresh)  Brelative    WPet      Bin     Bout  WC(2.30) Wr(2.30)     Z       Wr    Wr(SAT)    Wr(FC)   Wr(exp)   Wr(sto)   Wr(sen)   Wr(PWP)    SaltIn    SaltOut   SaltUp   Salt(2.30)  SaltZ     Z       ECe    ECsw   StSalt  Zgwt    ECgw       WC01       WC 2       WC 3       WC 4       WC 5       WC 6       WC 7       WC 8       WC 9       WC10       WC11       WC12      ECe01      ECe 2      ECe 3      ECe 4      ECe 5      ECe 6      ECe 7      ECe 8      ECe 9      ECe10      ECe11      ECe12     Rain       ETo      Tmin      Tavg      Tmax      CO2
                                      mm      mm       mm     mm     mm     mm       mm       mm      m        mm       mm     %        mm       mm    %        mm      mm       %  degC-day     m       %      %      %      %      %      %       %       %       -        mm       mm       mm    %     g/m2    ton/ha      %    ton/ha   ton/ha       %       kg/m3   ton/ha   ton/ha      mm       mm       m       mm        mm        mm        mm        mm        mm         mm    ton/ha    ton/ha    ton/ha    ton/ha    ton/ha     m      dS/m    dS/m      %     m      dS/m       0.05       0.18       0.33       0.48       0.63       0.80       1.00       1.20       1.43       1.68       1.93       2.18       0.05       0.18       0.33       0.48       0.63       0.80       1.00       1.20       1.43       1.68       1.93       2.18       mm        mm     degC      degC      degC       ppm
     1     7  2024     1     1     268.4     0.0      0.0    0.0    0.0    0.0      0.0      0.0   -9.90      0.2      0.2     99      0.0      0.0   100      0.2     0.2      99     20.3    0.30     -9     -9     -9      0     -9     0.0     0.0      0    -9.00      0.0      0.0      0.0   100     0.0     0.000    -9.9    0.000    0.000      -9        0.00    0.000    0.000     268.4    268.4    0.30    34.4     125.1      34.6      30.7      12.4      15.5       6.9    0.000     0.000     0.000     0.000     0.000    0.30     0.00    0.00      0   -9.90   -9.00       11.5       11.7       11.7       11.7       11.7       11.7       11.7       11.7       11.7       11.7       11.7       11.7        0.0        0.0        0.0        0.0        0.0        0.0        0.0        0.0        0.0        0.0        0.0        0.0      0.0       0.2      26.6      28.3      30.0    422.57
     2     7  2024     2     1     268.7     0.5      0.0    0.0    0.5    0.0      0.0      0.0   -9.90      0.2      0.2    100      0.0      0.0   100      0.2     0.2     100     19.8    0.30     -9     -9     -9      0     -9     0.0     0.0      0    -9.00      0.0      0.0      0.0   100     0.0     0.000    -9.9    0.000    0.000      -9        0.00    0.000    0.000     268.7    268.7    0.30    34.7     125.1      34.6      30.7      12.4      15.5       6.9    0.000     0.000     0.000     0.000     0.000    0.30     0.00    0.00      0   -9.90   -9.00       11.8       11.7       11.7       11.7       11.7       11.7       11.7       11.7       11.7       11.7       11.7       11.7        0.0        0.0        0.0        0.0        0.0        0.0        0.0        0.0        0.0        0.0        0.0        0.0      0.5       0.2      26.3      27.8      29.2    422.57
     3     7  2024     3     1     272.5     4.0      0.0    0.0    4.0    0.0      0.0      0.0   -9.90      0.2      0.2    100      0.0      0.0   100      0.2     0.2     100     20.2    0.30     -9     -9     -9      0     -9     0.0     0.0      0    -9.00      0.0      0.0      0.0   100     0.0     0.000    -9.9    0.000    0.000      -9        0.00    0.000    0.000     272.5    272.5    0.30    38.5     125.1      34.6      30.7      12.4      15.5       6.9    0.000     0.000     0.000     0.000     0.000    0.30     0.00    0.00      0   -9.90   -9.00       15.6       11.7       11.7       11.7       11.7       11.7       11.7       11.7       11.7       11.7       11.7       11.7        0.0        0.0        0.0        0.0        0.0        0.0        0.0        0.0        0.0        0.0        0.0        0.0      4.0       0.2      26.4      28.2      29.9    422.57
     4     7  2024     4     1     272.1     1.1      0.0    0.0    1.1    0.0      1.3      0.0   -9.90      0.2      0.2    100      0.0      0.0   100      0.2     0.2     100     20.4    0.30     -9     -9     -9      0     -9     0.0     0.0      0    -9.00      0.0      0.0      0.0   100     0.0     0.000    -9.9    0.000    0.000      -9        0.00    0.000    0.000     272.1    272.1    0.30    36.3     125.1      34.6      30.7      12.4      15.5       6.9    0.000     0.000     0.000     0.000     0.000    0.30     0.00    0.00      0   -9.90   -9.00       12.8       12.0       12.1       12.0       11.9       11.8       11.8       11.8       11.7       11.7       11.7       11.7        0.0        0.0        0.0        0.0        0.0        0.0        0.0        0.0        0.0        0.0        0.0        0.0      1.1       0.2      26.8      28.4      30.0    422.57
     5     7  2024     5     1     270.7     0.7      0.0    0.0    0.7    0.0      1.9      0.0   -9.90      0.2      0.2    100      0.0      0.0   100      0.2     0.2     100     19.5    0.32     -9     -9     -9      0     -9     0.0     0.0      0    -9.00      0.0      0.0      0.0   100     0.0     0.000    -9.9    0.000    0.000      -9        0.00    0.000    0.000     270.7    270.7    0.32    37.8     133.5      36.9      32.8      13.3      16.5       7.4    0.000     0.000     0.000     0.000     0.000    0.32     0.00    0.00      0   -9.90   -9.00       12.3       11.8       11.8       11.8       11.8       11.8       11.8       11.8       11.7       11.7       11.7       11.7        0.0        0.0        0.0        0.0        0.0        0.0        0.0        0.0        0.0        0.0        0.0        0.0      0.7       0.2      26.0      27.5      29.1    422.57
     6     7  2024     6     1     269.3     0.1      0.0    0.0    0.1    0.0      1.3      0.0   -9.90      0.3      0.3    100      0.0      0.0   100      0.3     0.3     100     20.1    0.36     -9     -9     -9      0     -9     0.0     0.0      0    -9.00      0.0      0.0      0.0   100     0.0     0.000    -9.9    0.000    0.000      -9        0.00    0.000    0.000     269.3    269.3    0.36    41.7     150.6      41.6      37.0      15.1      18.7       8.4    0.000     0.000     0.000     0.000     0.000    0.36     0.00    0.00      0   -9.90   -9.00       11.6       11.8       11.8       11.8       11.8       11.7       11.7       11.7       11.7       11.7       11.7       11.7        0.0        0.0        0.0        0.0        0.0        0.0        0.0        0.0        0.0        0.0        0.0        0.0      0.1       0.3      26.1      29.2      32.2    422.57
     7     7  2024     7     2     275.6     7.2      0.0    0.0    7.1    0.0      0.6      0.0   -9.90      0.2      0.2    100      0.0      0.0   100      0.2     0.2     100     18.7    0.40     -9      0      0      0      0     0.4     0.4      0     0.01      0.0      0.0      0.0   100    35.0     0.003    -9.9    0.000    0.000     100        0.00    0.000    0.000     275.6    275.6    0.40    52.8     166.4      46.0      34.2      16.6      16.6       9.3    0.000     0.000     0.000     0.000     0.000    0.40     0.00    0.00      0   -9.90   -9.00       18.6       11.7       11.7       11.7       11.7       11.7       11.7       11.7       11.7       11.7       11.7       11.7        0.0        0.0        0.0        0.0        0.0        0.0        0.0        0.0        0.0        0.0        0.0        0.0      7.2       0.2      25.1      26.7      28.3    422.57
     8     7  2024     8     2     281.7     8.8      0.0    0.0    8.7    0.1      2.5      0.0   -9.90      0.2      0.2    100      0.0      0.0   100      0.2     0.2     100     18.6    0.43     -9      0      0      0      0     0.5     0.5      0     0.01      0.0      0.0      0.0   100    35.0     0.006    -9.9    0.000    0.000     100        0.00    0.000    0.000     281.7    281.7    0.43    61.2     181.2      50.1      37.2      18.1      18.1      10.2    0.000     0.000     0.000     0.000     0.000    0.43     0.00    0.00      0   -9.90   -9.00       21.2       12.2       12.3       12.0       11.9       11.9       11.8       11.8       11.8       11.8       11.7       11.7        0.0        0.0        0.0        0.0        0.0        0.0        0.0        0.0        0.0        0.0        0.0        0.0      8.8       0.2      25.3      26.6      27.9    422.57
     9     7  2024     9     2     291.5    16.7      0.0    0.0   15.6    1.1      5.6      0.0   -9.90      0.2      0.2    100      0.0      0.0   100      0.2     0.2     100     19.4    0.47      0      0      0      0      0     0.6     0.6      0     0.01      0.0      0.0      0.0   100    35.0     0.010    -9.9    0.000    0.000     100        0.00    0.000    0.000     291.5    291.5    0.47    73.2     195.4      54.0      40.2      19.6      19.6      11.0    0.000     0.000     0.000     0.000     0.000    0.47     0.00    0.00      0   -9.90   -9.00       28.4       12.4       12.6       12.3       12.1       12.0       11.9       11.9       11.8       11.8       11.8       11.8        0.0        0.0        0.0        0.0        0.0        0.0        0.0        0.0        0.0        0.0        0.0        0.0     16.7       0.2      26.1      27.4      28.7    422.57
    10     7  2024    10     2     280.7     0.1      0.0    0.0    0.1    0.0     10.6      0.0   -9.90      0.2      0.2    100      0.0      0.0   100      0.2     0.2     100     19.6    0.50      0      0      0      0      0     0.7     0.7      0     0.01      0.0      0.0      0.0   100    35.0     0.014    -9.9    0.000    0.000     100        0.00    0.000    0.000     280.7    280.7    0.50    63.6     209.1      57.8      43.1      21.0      21.0      11.9    0.000     0.000     0.000     0.000     0.000    0.50     0.00    0.00      0   -9.90   -9.00       12.6       12.8       13.3       12.7       12.4       12.2       12.1       12.0       12.0       11.9       11.9       11.9        0.0        0.0        0.0        0.0        0.0        0.0        0.0        0.0        0.0        0.0        0.0        0.0      0.1       0.2      25.4      27.6      29.9    422.57
    11     7  2024    11     2     274.8     2.0      0.0    0.0    2.0    0.0      7.6      0.0   -9.90      0.2      0.2    100      0.0      0.0   100      0.2     0.2     100     20.0    0.53      0      0      0      0      0     0.8     0.8      0     0.01      0.0      0.0      0.0   100    35.0     0.019    -9.9    0.000    0.000     100        0.00    0.000    0.000     274.8    274.8    0.53    64.5     222.3      61.4      45.8      22.3      22.3      12.6    0.000     0.000     0.000     0.000     0.000    0.53     0.00    0.00      0   -9.90   -9.00       13.7       11.8       12.1       12.0       12.0       11.9       11.9       11.9       11.9       11.8       11.8       11.8        0.0        0.0        0.0        0.0        0.0        0.0        0.0        0.0        0.0        0.0        0.0        0.0      2.0       0.2      26.0      28.0      30.1    422.57
    12     7  2024    12     2     272.4     1.5      0.0    0.0    1.5    0.0      3.8      0.0   -9.90      0.2      0.2    100      0.0      0.0   100      0.2     0.2     100     19.8    0.56      0      0      0      0      0     1.0     1.0      0     0.02      0.0      0.0      0.0   100    35.0     0.026    -9.9    0.000    0.000     100        0.00    0.000    0.000     272.4    272.4    0.56    67.4     235.2      65.0      48.3      23.6      23.6      13.4    0.000     0.000     0.000     0.000     0.000    0.56     0.00    0.00      0   -9.90   -9.00       13.3       11.9       11.9       11.8       11.8       11.8       11.8       11.8       11.8       11.8       11.8       11.8        0.0        0.0        0.0        0.0        0.0        0.0        0.0        0.0        0.0        0.0        0.0        0.0      1.5       0.1      26.7      27.8      28.9    422.57
    13     7  2024    13     2     273.6     3.5      0.0    0.0    3.5    0.0      2.0      0.0   -9.90      0.2      0.2    100      0.0      0.0   100      0.2     0.2     100     19.9    0.59      0      0      0      0      0     1.2     1.2      0     0.02      0.0      0.0      0.0   100    35.0     0.033    -9.9    0.000    0.000     100        0.00    0.000    0.000     273.6    273.6    0.59    72.7     247.7      68.4      51.0      24.9      24.9      14.1    0.000     0.000     0.000     0.000     0.000    0.59     0.00    0.00      0   -9.90   -9.00       15.3       11.9       11.9       11.8       11.8       11.8       11.8       11.7       11.7       11.7       11.7       11.7        0.0        0.0        0.0        0.0        0.0        0.0        0.0        0.0        0.0        0.0        0.0        0.0      3.5       0.2      26.4      27.9      29.4    422.57
    14     7  2024    14     2     273.2     2.0      0.0    0.0    2.0    0.0      2.2      0.0   -9.90      0.2      0.2    100      0.0      0.0   100      0.2     0.2     100     20.0    0.62      0      0      0      0      0     1.4     1.4      0     0.02      0.0      0.0      0.0   100    35.0     0.041    -9.9    0.000    0.000     100        0.00    0.000    0.000     273.2    273.2    0.62    75.2     259.9      71.8      53.5      26.2      26.2      14.8    0.000     0.000     0.000     0.000     0.000    0.62     0.00    0.00      0   -9.90   -9.00       13.8       12.0       12.1       11.9       11.8       11.8       11.8       11.8       11.8       11.7       11.7       11.7        0.0        0.0        0.0        0.0        0.0        0.0        0.0        0.0        0.0        0.0        0.0        0.0      2.0       0.2      26.0      28.0      29.9    422.57
    15     7  2024    15     2     274.1     3.4      0.0    0.0    3.4    0.0      2.3      0.0   -9.90      0.2      0.2    100      0.0      0.0   100      0.2     0.2     100     20.3    0.65      0      0      0      0      0     1.6     1.6      0     0.03      0.0      0.0      0.0   100    35.0     0.051    -9.9    0.000    0.000     100        0.00    0.000    0.000     274.1    274.1    0.65    79.6     271.9      75.1      55.9      27.4      27.4      15.6    0.000     0.000     0.000     0.000     0.000    0.65     0.00    0.00      0   -9.90   -9.00       15.3       11.9       11.9       11.9       11.8       11.8       11.8       11.8       11.8       11.7       11.7       11.7        0.0        0.0        0.0        0.0        0.0        0.0        0.0        0.0        0.0        0.0        0.0        0.0      3.4       0.2      26.9      28.3      29.8    422.57
    16     7  2024    16     2     273.8     2.5      0.0    0.0    2.5    0.0      2.6      0.0   -9.90      0.2      0.2    100      0.0      0.0   100      0.2     0.2     100     20.5    0.67      0      0      0      0      0     1.9     1.9      0     0.03      0.0      0.0      0.0   100    35.0     0.063    -9.9    0.000    0.000     100        0.00    0.000    0.000     273.8    273.8    0.67    82.5     283.6      78.3      58.4      28.6      28.6      16.2    0.000     0.000     0.000     0.000     0.000    0.67     0.00    0.00      0   -9.90   -9.00       14.4       12.0       12.1       11.9       11.9       11.8       11.8       11.8       11.8       11.8       11.7       11.7        0.0        0.0        0.0        0.0        0.0        0.0        0.0        0.0        0.0        0.0        0.0        0.0      2.5       0.2      26.9      28.6      30.3    422.57
    17     7  2024    17     2     274.3     3.2      0.0    0.0    3.2    0.0      2.5      0.0   -9.90      0.2      0.2    100      0.0      0.0   100      0.2     0.2     100     20.0    0.70      0      0      0      0      0     2.3     2.3      0     0.04      0.0      0.0      0.0   100    35.0     0.077    -9.9    0.000    0.000     100        0.00    0.000    0.000     274.3    274.3    0.70    86.2     295.2      81.5      60.7      29.7      29.7      16.9    0.000     0.000     0.000     0.000     0.000    0.70     0.00    0.00      0   -9.90   -9.00       15.1       12.0       12.0       11.9       11.8       11.8       11.8       11.8       11.8       11.8       11.7       11.7        0.0        0.0        0.0        0.0        0.0        0.0        0.0        0.0        0.0        0.0        0.0        0.0      3.2       0.2      26.6      28.0      29.3    422.57
    18     7  2024    18     2     281.8    10.5      0.0    0.0   10.3    0.2      2.6      0.0   -9.90      0.2      0.2    100      0.0      0.0   100      0.2     0.2     100     18.7    0.73      0      0      0      0      0     2.7     2.7      0     0.05      0.0      0.0      0.0   100    35.0     0.094    -9.9    0.000    0.000     100        0.00    0.000    0.000     281.8    281.8    0.73    96.8     306.5      84.6      63.0      30.9      30.9      17.6    0.000     0.000     0.000     0.000     0.000    0.73     0.00    0.00      0   -9.90   -9.00       22.4       12.0       12.0       11.9       11.9       11.8       11.8       11.8       11.8       11.8       11.7       11.7        0.0        0.0        0.0        0.0        0.0        0.0        0.0        0.0        0.0        0.0        0.0        0.0     10.5       0.2      25.5      26.7      28.0    422.57
    19     7  2024    19     2     287.2    11.4      0.0    0.0   11.1    0.3      5.5      0.0   -9.90      0.2      0.2    100      0.0      0.0   100      0.3     0.3     100     19.6    0.75      0      0      0      0      0     3.2     3.2      0     0.06      0.0      0.0      0.0   100    35.0     0.113    -9.9    0.000    0.000     100        0.00    0.000    0.000     287.2    287.2    0.75   104.0     317.7      87.7      65.5      32.1      32.1      18.3    0.000     0.000     0.000     0.000     0.000    0.75     0.00    0.00      0   -9.90   -9.00       23.8       12.5       12.7       12.3       12.1       12.0       11.9       11.9       11.8       11.8       11.8       11.8        0.0        0.0        0.0        0.0        0.0        0.0        0.0        0.0        0.0        0.0        0.0        0.0     11.4       0.2      25.1      27.6      30.0    422.57
    20     7  2024    20     2     280.3     2.3      0.0    0.0    2.3    0.0      8.9      0.0   -9.90      0.2      0.2    100      0.0      0.0   100      0.2     0.2     100     20.5    0.78      0      0      0      0      0     3.7     3.7      0     0.06      0.0      0.0      0.0   100    35.0     0.136    -9.9    0.000    0.000     100        0.00    0.000    0.000     280.3    280.3    0.78    98.7     328.7      90.8      67.7      33.2      33.2      18.9    0.000     0.000     0.000     0.000     0.000    0.78     0.00    0.00      0   -9.90   -9.00       14.2       12.6       12.9       12.5       12.3       12.1       12.1       12.0       11.9       11.9       11.9       11.8        0.0        0.0        0.0        0.0        0.0        0.0        0.0        0.0        0.0        0.0        0.0        0.0      2.3       0.2      26.9      28.5      30.1    422.57
    21     7  2024    21     2     273.3     0.4      0.0    0.0    0.4    0.0      7.2      0.0   -9.90      0.2      0.2    100      0.0      0.0   100      0.2     0.2     100     20.4    0.81      0      0      0      0      0     4.4     4.4      0     0.08      0.0      0.0      0.0   100    35.0     0.163    -9.9    0.000    0.000     100        0.00    0.000    0.000     273.3    273.3    0.81    96.1     339.6      93.8      70.0      34.3      34.3      19.5    0.000     0.000     0.000     0.000     0.000    0.81     0.00    0.00      0   -9.90   -9.00       11.9       12.0       12.1       12.0       12.0       11.9       11.9       11.9       11.9       11.8       11.8       11.8        0.0        0.0        0.0        0.0        0.0        0.0        0.0        0.0        0.0        0.0        0.0        0.0      0.4       0.2      26.7      28.6      30.5    422.57
    22     7  2024    22     2     269.8     0.1      0.0    0.0    0.1    0.0      3.3      0.0   -9.90      0.2      0.2    100      0.0      0.0   100      0.2     0.2     100     20.6    0.83      0      0      0      0      0     5.2     5.2      0     0.09      0.0      0.0      0.0   100    35.0     0.194    -9.9    0.000    0.000     100        0.00    0.000    0.000     269.8    269.8    0.83    97.1     350.3      96.7      72.2      35.4      35.4      20.2    0.000     0.000     0.000     0.000     0.000    0.83     0.00    0.00      0   -9.90   -9.00       11.5       11.7       11.8       11.8       11.8       11.8       11.8       11.8       11.8       11.8       11.8       11.7        0.0        0.0        0.0        0.0        0.0        0.0        0.0        0.0        0.0        0.0        0.0        0.0      0.1       0.2      27.2      29.1      30.9    422.57
    23     7  2024    23     2     270.4     1.8      0.0    0.0    1.8    0.0      1.0      0.0   -9.90      0.2      0.2    100      0.0      0.0   100      0.2     0.2     100     19.7    0.86      0      0      0      0      0     6.1     6.1      0     0.10      0.0      0.0      0.0   100    35.0     0.231    -9.9    0.000    0.000     100        0.00    0.000    0.000     270.4    270.4    0.86   101.2     360.9      99.7      74.2      36.4      36.4      20.8    0.000     0.000     0.000     0.000     0.000    0.86     0.00    0.00      0   -9.90   -9.00       13.2       11.7       11.7       11.7       11.7       11.7       11.7       11.7       11.7       11.7       11.7       11.7        0.0        0.0        0.0        0.0        0.0        0.0        0.0        0.0        0.0        0.0        0.0        0.0      1.8       0.2      26.6      27.7      28.8    422.57
    24     7  2024    24     2     274.1     4.7      0.0    0.0    4.7    0.0      0.7      0.0   -9.90      0.2      0.2    100      0.0      0.0   100      0.2     0.2     100     19.4    0.88      0      0      0      0      0     7.2     7.2      0     0.12      0.0      0.0      0.0   100    35.0     0.274    -9.9    0.000    0.000     100        0.00    0.000    0.000     274.1    274.1    0.88   107.9     371.4     102.5      76.5      37.5      37.5      21.4    0.000     0.000     0.000     0.000     0.000    0.88     0.00    0.00      0   -9.90   -9.00       16.5       11.8       11.8       11.8       11.7       11.7       11.7       11.7       11.7       11.7       11.7       11.7        0.0        0.0        0.0        0.0        0.0        0.0        0.0        0.0        0.0        0.0        0.0        0.0      4.7       0.2      26.0      27.4      28.9    422.57
    25     7  2024    25     2     290.0    19.8      0.0    0.0   18.1    1.7      2.1      0.0   -9.90      0.1      0.1    100      0.0      0.0   100      0.1     0.1     100     18.5    0.91      0      0      0      0      0     8.5     8.5      0     0.14      0.0      0.0      0.0   100    35.0     0.324    -9.9    0.000    0.000     100        0.00    0.000    0.000     290.0    290.0    0.91   126.1     381.7     105.4      78.4      38.4      38.4      22.0    0.000     0.000     0.000     0.000     0.000    0.91     0.00    0.00      0   -9.90   -9.00       30.6       12.1       12.1       11.9       11.9       11.8       11.8       11.8       11.8       11.7       11.7       11.7        0.0        0.0        0.0        0.0        0.0        0.0        0.0        0.0        0.0        0.0        0.0        0.0     19.8       0.1      25.9      26.5      27.2    422.57
    26     7  2024    26     2     338.6   107.1      0.0    0.0   58.0   49.1      9.2      0.0   -9.90      0.2      0.2    100      0.0      0.0   100      0.2     0.2     100     19.4    0.93      0      0      0      0      0    10.0    10.0      0     0.17      0.0      0.0      0.0   100    35.0     0.383    -9.9    0.000    0.000     100        0.00    0.000    0.000     338.6    338.6    0.93   175.0     392.0     108.2      80.8      39.7      39.7      22.6    0.000     0.000     0.000     0.000     0.000    0.93     0.00    0.00      0   -9.90   -9.00       42.1       32.4       13.4       12.7       12.4       12.2       12.1       12.0       12.0       11.9       11.9       11.8        0.0        0.0        0.0        0.0        0.0        0.0        0.0        0.0        0.0        0.0        0.0        0.0    107.1       0.2      25.6      27.4      29.2    422.57
    27     7  2024    27     2     302.2     3.7      0.0    0.0    3.7    0.0     39.8      0.0   -9.90      0.2      0.2    100      0.0      0.0   100      0.2     0.2     100     20.3    0.95      0      0      0      0      0    11.8    11.8      0     0.20      0.0      0.0      0.0   100    35.0     0.452    -9.9    0.000    0.000     100        0.00    0.000    0.000     302.2    302.2    0.95   132.2     402.2     111.0      82.9      40.7      40.7      23.2    0.000     0.000     0.000     0.000     0.000    0.95     0.00    0.00      0   -9.90   -9.00       15.2       11.7       15.1       14.6       14.1       13.6       13.2       12.9       12.7       12.5       12.4       12.3        0.0        0.0        0.0        0.0        0.0        0.0        0.0        0.0        0.0        0.0        0.0        0.0      3.7       0.2      26.7      28.7      30.8    422.57
    28     7  2024    28     2     279.1     0.4      0.0    0.0    0.4    0.0     23.2      0.0   -9.90      0.2      0.2    100      0.0      0.0   100      0.2     0.2     100     20.5    0.98      0      0      0      0      0    14.0    14.0      0     0.23      0.0      0.0      0.0   100    35.0     0.532    -9.9    0.000    0.000     100        0.00    0.000    0.000     279.1    279.1    0.98   119.0     412.2     113.8      84.9      41.7      41.7      23.8    0.000     0.000     0.000     0.000     0.000    0.98     0.00    0.00      0   -9.90   -9.00       11.9       12.0       12.5       12.4       12.2       12.2       12.2       12.2       12.1       12.1       12.1       12.0        0.0        0.0        0.0        0.0        0.0        0.0        0.0        0.0        0.0        0.0        0.0        0.0      0.4       0.2      26.9      28.6      30.2    422.57
    29     7  2024    29     2     271.1     0.0      0.0    0.0    0.0    0.0      7.8      0.0   -9.90      0.2      0.2    100      0.1      0.1   100      0.2     0.2     100     20.2    1.00      0      0      0      0      0    16.5    16.5      0     0.27      0.1      0.1      0.1   100    35.0     0.626    -9.9    0.000    0.000     100        0.00    0.000    0.000     271.1    271.1    1.00   117.6     422.2     116.6      87.0      42.7      42.7      24.4    0.000     0.000     0.000     0.000     0.000    1.00     0.00    0.00      0   -9.90   -9.00       11.5       11.7       11.9       11.9       11.8       11.8       11.8       11.8       11.8       11.8       11.8       11.8        0.0        0.0        0.0        0.0        0.0        0.0        0.0        0.0        0.0        0.0        0.0        0.0      0.0       0.2      26.6      28.2      29.9    422.57
    30     7  2024    30     2     269.4     0.5      0.0    0.0    0.5    0.0      2.1      0.0   -9.90      0.1      0.1    100      0.1      0.1   100      0.2     0.2     100     20.4    1.02      0      0      0      0      0    19.4    19.4      0     0.31      0.1      0.1      0.1   100    35.0     0.734    -9.9    0.000    0.000     100        0.00    0.000    0.000     269.4    269.4    1.02   119.7     432.0     119.3      89.0      43.7      43.7      25.0    0.000     0.000     0.000     0.000     0.000    1.02     0.00    0.00      0   -9.90   -9.00       11.9       11.7       11.7       11.7       11.7       11.7       11.7       11.7       11.7       11.7       11.7       11.7        0.0        0.0        0.0        0.0        0.0        0.0        0.0        0.0        0.0        0.0        0.0        0.0      0.5       0.2      26.9      28.4      30.0    422.57
    31     7  2024    31     2     270.1     1.5      0.0    0.0    1.5    0.0      0.6      0.0   -9.90      0.1      0.1    100      0.1      0.1   100      0.2     0.2     100     20.1    1.05      0      0      0      0      0    22.9    22.9      0     0.36      0.1      0.1      0.1   100    35.0     0.859    -9.9    0.000    0.000     100        0.00    0.000    0.000     270.1    270.1    1.05   123.4     441.8     122.0      91.0      44.7      44.7      25.6    0.000     0.000     0.000     0.000     0.000    1.05     0.00    0.00      0   -9.90   -9.00       13.1       11.7       11.7       11.7       11.7       11.7       11.7       11.7       11.7       11.7       11.7       11.7        0.0        0.0        0.0        0.0        0.0        0.0        0.0        0.0        0.0        0.0        0.0        0.0      1.5       0.2      26.7      28.1      29.5    422.57
     1     8  2024    32     2     275.5     6.1      0.0    0.0    6.1    0.0      0.6      0.0   -9.90      0.1      0.1    100      0.1      0.1   100      0.2     0.2     100     20.2    1.07      0      0      0      0      0    27.0    27.0      0     0.41      0.1      0.1      0.1   100    35.0     1.003    -9.9    0.000    0.000     100        0.00    0.000    0.000     275.5    275.5    1.07   131.4     451.5     124.7      93.0      45.7      45.7      26.1    0.000     0.000     0.000     0.000     0.000    1.07     0.00    0.00      0   -9.90   -9.00       17.9       11.8       11.8       11.8       11.7       11.7       11.7       11.7       11.7       11.7       11.7       11.7        0.0        0.0        0.0        0.0        0.0        0.0        0.0        0.0        0.0        0.0        0.0        0.0      6.1       0.2      26.7      28.2      29.7    422.57
     2     8  2024    33     2     272.7     0.1      0.0    0.0    0.1    0.0      2.6      0.0   -9.90      0.1      0.1    100      0.1      0.1   100      0.2     0.2     100     20.3    1.09      0      0      0      0      0    31.8    31.8      0     0.47      0.1      0.1      0.1   100    35.0     1.168    -9.9    0.000    0.000     100        0.00    0.000    0.000     272.7    272.7    1.09   130.8     461.2     127.3      95.1      46.7      46.7      26.7    0.000     0.000     0.000     0.000     0.000    1.09     0.00    0.00      0   -9.90   -9.00       12.2       12.2       12.3       12.0       11.9       11.9       11.8       11.8       11.8       11.8       11.7       11.7        0.0        0.0        0.0        0.0        0.0        0.0        0.0        0.0        0.0        0.0        0.0        0.0      0.1       0.2      26.5      28.3      30.1    422.57
     3     8  2024    34     2     270.1     0.0      0.0    0.0    0.0    0.0      2.5      0.0   -9.90      0.1      0.1    100      0.1      0.1   100      0.2     0.2     100     20.1    1.12      0      0      0      0      0    37.5    37.5      0     0.54      0.1      0.1      0.1   100    35.0     1.357    -9.9    0.000    0.000     100        0.00    0.000    0.000     270.1    270.1    1.12   130.8     470.7     130.0      97.1      47.8      47.8      27.3    0.000     0.000     0.000     0.000     0.000    1.12     0.00    0.00      0   -9.90   -9.00       11.5       11.8       11.8       11.8       11.8       11.8       11.8       11.8       11.8       11.7       11.7       11.7        0.0        0.0        0.0        0.0        0.0        0.0        0.0        0.0        0.0        0.0        0.0        0.0      0.0       0.2      26.1      28.3      30.5    422.57
     4     8  2024    35     2     278.2     9.5      0.0    0.0    9.4    0.1      1.1      0.0   -9.90      0.1      0.1    100      0.1      0.1   100      0.1     0.1     100     18.2    1.14      0      0      0      0      0    44.3    44.3      0     0.61      0.1      0.1      0.1   100    35.0     1.571    -9.9    0.000    0.000     100        0.00    0.000    0.000     278.2    278.2    1.14   142.0     480.2     132.6      98.7      48.5      48.5      27.8    0.000     0.000     0.000     0.000     0.000    1.14     0.00    0.00      0   -9.90   -9.00       21.0       11.7       11.7       11.7       11.7       11.7       11.7       11.7       11.7       11.7       11.7       11.7        0.0        0.0        0.0        0.0        0.0        0.0        0.0        0.0        0.0        0.0        0.0        0.0      9.5       0.1      25.5      26.2      26.9    422.57
     5     8  2024    36     2     318.9    66.2      0.0    0.0   44.4   21.8      3.5      0.0   -9.90      0.1      0.1    100      0.1      0.1   100      0.1     0.1     100     18.5    1.16      0      0      0      0      0    51.8    51.8      0     0.69      0.1      0.1      0.1   100    35.0     1.812    -9.9    0.000    0.000     100        0.00    0.000    0.000     318.9    318.9    1.16   184.6     489.6     135.2     100.7      49.5      49.5      28.4    0.000     0.000     0.000     0.000     0.000    1.16     0.00    0.00      0   -9.90   -9.00       42.1       22.8       12.5       12.2       12.0       11.9       11.9       11.8       11.8       11.8       11.8       11.8        0.0        0.0        0.0        0.0        0.0        0.0        0.0        0.0        0.0        0.0        0.0        0.0     66.2       0.1      25.5      26.5      27.5    422.57
     6     8  2024    37     2     311.4    21.4      0.0    0.0   19.4    2.0     26.7      0.0   -9.90      0.1      0.1    100      0.1      0.1   100      0.2     0.2     100     19.8    1.18      0      0      0      0      0    58.4    58.4      0     0.75      0.1      0.1      0.1   100    35.0     2.075    -9.9    0.000    0.000     100        0.00    0.000    0.000     311.4    311.4    1.18   174.1     499.0     137.8     102.9      50.6      50.6      28.9    0.000     0.000     0.000     0.000     0.000    1.18     0.00    0.00      0   -9.90   -9.00       31.2       11.7       15.0       14.2       13.5       13.1       12.8       12.6       12.4       12.3       12.2       12.1        0.0        0.0        0.0        0.0        0.0        0.0        0.0        0.0        0.0        0.0        0.0        0.0     21.4       0.2      26.0      27.8      29.6    422.57
     7     8  2024    38     2     286.8     1.2      0.0    0.0    1.2    0.0     25.6      0.0   -9.90      0.0      0.0    100      0.1      0.1   100      0.2     0.2     100     19.7    1.20      0      0      0      0      0    64.0    64.0      0     0.80      0.1      0.1      0.1   100    35.0     2.354    -9.9    0.000    0.000     100        0.00    0.000    0.000     286.8    286.8    1.20   153.3     508.3     140.3     104.7      51.5      51.5      29.5    0.000     0.000     0.000     0.000     0.000    1.20     0.00    0.00      0   -9.90   -9.00       12.9       12.8       13.4       13.0       12.8       12.6       12.4       12.3       12.3       12.2       12.2       12.1        0.0        0.0        0.0        0.0        0.0        0.0        0.0        0.0        0.0        0.0        0.0        0.0      1.2       0.2      26.3      27.7      29.1    422.57
     8     8  2024    39     2     280.2     6.1      0.0    0.0    6.1    0.0     12.5      0.0   -9.90      0.0      0.0    100      0.2      0.2   100      0.2     0.2     100     20.0    1.23      0      0      0      0      0    68.8    68.8      0     0.84      0.2      0.2      0.2   100    35.0     2.647    -9.9    0.000    0.000     100        0.00    0.000    0.000     280.2    280.2    1.23   152.2     517.5     142.9     106.7      52.5      52.5      30.0    0.000     0.000     0.000     0.000     0.000    1.23     0.00    0.00      0   -9.90   -9.00       17.8       11.9       12.1       12.0       12.0       12.0       12.0       12.0       11.9       11.9       11.9       11.9        0.0        0.0        0.0        0.0        0.0        0.0        0.0        0.0        0.0        0.0        0.0        0.0      6.1       0.2      26.1      28.1      30.1    422.57
     9     8  2024    40     2     280.3     6.6      0.0    0.0    6.6    0.0      6.3      0.0   -9.90      0.0      0.0    100      0.2      0.2   100      0.2     0.2     100     20.5    1.25      0      0      0      0      0    72.8    72.8      0     0.87      0.2      0.2      0.2   100    35.0     2.950    -9.9    0.000    0.000     100        0.00    0.000    0.000     280.3    280.3    1.25   155.9     526.7     145.4     108.5      53.4      53.4      30.6    0.000     0.000     0.000     0.000     0.000    1.25     0.00    0.00      0   -9.90   -9.00       18.9       12.2       12.3       12.0       12.0       11.9       11.9       11.8       11.8       11.8       11.8       11.8        0.0        0.0        0.0        0.0        0.0        0.0        0.0        0.0        0.0        0.0        0.0        0.0      6.6       0.2      27.1      28.7      30.3    422.57
    10     8  2024    41     2     276.9     2.5      0.0    0.0    2.5    0.0      5.7      0.0   -9.90      0.0      0.0    100      0.1      0.1   100      0.2     0.2     100     20.1    1.27      0      0      0      0      0    76.2    76.2      0     0.89      0.1      0.1      0.1   100    35.0     3.263    -9.9    0.000    0.000     100        0.00    0.000    0.000     276.9    276.9    1.27   155.1     535.8     147.9     110.3      54.2      54.2      31.1    0.000     0.000     0.000     0.000     0.000    1.27     0.00    0.00      0   -9.90   -9.00       14.5       12.3       12.4       12.1       12.1       11.9       11.9       11.9       11.8       11.8       11.8       11.8        0.0        0.0        0.0        0.0        0.0        0.0        0.0        0.0        0.0        0.0        0.0        0.0      2.5       0.2      26.9      28.1      29.2    422.57
    11     8  2024    42     2     276.1     4.0      0.0    0.0    4.0    0.0      4.6      0.0   -9.90      0.0      0.0    100      0.2      0.2   100      0.2     0.2     100     20.1    1.29      0      0      0      0      0    79.1    79.1      0     0.91      0.2      0.2      0.2   100    35.0     3.584    -9.9    0.000    0.000     100        0.00    0.000    0.000     276.1    276.1    1.29   157.1     544.9     150.4     112.4      55.3      55.3      31.6    0.000     0.000     0.000     0.000     0.000    1.29     0.00    0.00      0   -9.90   -9.00       16.0       12.0       12.0       12.0       11.9       11.9       11.8       11.8       11.8       11.8       11.8       11.8        0.0        0.0        0.0        0.0        0.0        0.0        0.0        0.0        0.0        0.0        0.0        0.0      4.0       0.2      26.2      28.2      30.2    422.57
    12     8  2024    43     2     283.4    11.6      0.0    0.0   11.2    0.3      3.7      0.0   -9.90      0.0      0.0    100      0.2      0.2   100      0.2     0.2     100     20.0    1.31      0      0      0      0      0    81.6    81.6      0     0.93      0.2      0.2      0.2   100    35.0     3.910    -9.9    0.000    0.000     100        0.00    0.000    0.000     283.4    283.4    1.31   167.1     553.9     152.9     114.2      56.2      56.2      32.2    0.000     0.000     0.000     0.000     0.000    1.31     0.00    0.00      0   -9.90   -9.00       23.5       12.1       12.1       12.0       11.9       11.9       11.8       11.8       11.8       11.8       11.8       11.8        0.0        0.0        0.0        0.0        0.0        0.0        0.0        0.0        0.0        0.0        0.0        0.0     11.6       0.2      26.1      28.0      29.9    422.57
    13     8  2024    44     2     277.5     0.8      0.0    0.0    0.8    0.0      6.5      0.0   -9.90      0.0      0.0    100      0.2      0.2   100      0.2     0.2     100     20.8    1.33      0      0      0      0      0    83.7    83.7      0     0.95      0.2      0.2      0.2   100    35.0     4.242    -9.9    0.000    0.000     100        0.00    0.000    0.000     277.5    277.5    1.33   163.0     562.8     155.4     115.9      57.0      57.0      32.7    0.000     0.000     0.000     0.000     0.000    1.33     0.00    0.00      0   -9.90   -9.00       12.6       12.5       12.8       12.4       12.3       12.0       12.0       11.9       11.9       11.9       11.8       11.8        0.0        0.0        0.0        0.0        0.0        0.0        0.0        0.0        0.0        0.0        0.0        0.0      0.8       0.2      27.6      28.9      30.2    422.57
    14     8  2024    45     2     272.7     0.9      0.0    0.0    0.9    0.0      5.5      0.0   -9.90      0.0      0.0    100      0.2      0.2   100      0.2     0.2     100     20.6    1.35      0      0      0      0      0    85.4    85.4      0     0.96      0.2      0.2      0.2   100    35.0     4.578    -9.9    0.000    0.000     100        0.00    0.000    0.000     272.7    272.7    1.35   161.0     571.7     157.8     117.8      58.0      58.0      33.2    0.000     0.000     0.000     0.000     0.000    1.35     0.00    0.00      0   -9.90   -9.00       12.5       11.8       12.0       11.9       11.9       11.9       11.9       11.8       11.8       11.8       11.8       11.8        0.0        0.0        0.0        0.0        0.0        0.0        0.0        0.0        0.0        0.0        0.0        0.0      0.9       0.2      27.3      28.7      30.1    422.57
    15     8  2024    46     2     271.4     1.6      0.0    0.0    1.6    0.0      2.7      0.0   -9.90      0.0      0.0    100      0.2      0.2   100      0.2     0.2     100     20.4    1.37      0      0      0      0      0    86.9    86.9      0     0.97      0.2      0.2      0.2   100    35.0     4.917    -9.9    0.000    0.000     100        0.00    0.000    0.000     271.4    271.4    1.37   162.7     580.6     160.3     119.6      58.9      58.9      33.8    0.000     0.000     0.000     0.000     0.000    1.37     0.00    0.00      0   -9.90   -9.00       13.3       11.8       11.8       11.8       11.8       11.8       11.8       11.8       11.8       11.7       11.7       11.7        0.0        0.0        0.0        0.0        0.0        0.0        0.0        0.0        0.0        0.0        0.0        0.0      1.6       0.2      26.7      28.4      30.1    422.57
    16     8  2024    47     2     284.8    15.9      0.0    0.0   15.0    0.9      1.4      0.0   -9.90      0.0      0.0    100      0.2      0.2   100      0.2     0.2     100     19.5    1.40      0      0      0      0      0    88.2    88.2      0     0.98      0.2      0.2      0.2   100    35.0     5.260    -9.9    0.000    0.000     100        0.00    0.000    0.000     284.8    284.8    1.40   178.7     589.4     162.7     121.4      59.8      59.8      34.3    0.000     0.000     0.000     0.000     0.000    1.40     0.00    0.00      0   -9.90   -9.00       27.0       11.8       11.9       11.8       11.8       11.8       11.7       11.7       11.7       11.7       11.7       11.7        0.0        0.0        0.0        0.0        0.0        0.0        0.0        0.0        0.0        0.0        0.0        0.0     15.9       0.2      26.0      27.5      29.1    422.57
    17     8  2024    48     2     286.2     8.2      0.0    0.0    8.1    0.1      6.6      0.0   -9.90      0.0      0.0    100      0.1      0.1   100      0.1     0.1     100     19.1    1.42      0      0      0      0      0    89.3    89.3      0     0.98      0.1      0.1      0.1   100    35.0     5.605    -9.9    0.000    0.000     100        0.00    0.000    0.000     286.2    286.2    1.42   181.5     598.2     165.1     123.0      60.5      60.5      34.8    0.000     0.000     0.000     0.000     0.000    1.42     0.00    0.00      0   -9.90   -9.00       20.8       12.7       13.1       12.5       12.2       12.1       12.0       11.9       11.9       11.8       11.8       11.8        0.0        0.0        0.0        0.0        0.0        0.0        0.0        0.0        0.0        0.0        0.0        0.0      8.2       0.1      26.3      27.1      27.9    422.57
    18     8  2024    49     2     290.1    13.4      0.0    0.0   12.9    0.5      8.7      0.0   -9.90      0.0      0.0    100      0.2      0.2   100      0.2     0.2     100     19.5    1.44      0      0      0      0      0    90.2    90.2      0     0.99      0.2      0.2      0.2   100    35.0     5.952    -9.9    0.000    0.000     100        0.00    0.000    0.000     290.1    290.1    1.44   187.7     606.9     167.5     124.9      61.5      61.5      35.3    0.000     0.000     0.000     0.000     0.000    1.44     0.00    0.00      0   -9.90   -9.00       25.6       12.4       12.7       12.4       12.2       12.1       12.0       12.0       11.9       11.9       11.9       11.8        0.0        0.0        0.0        0.0        0.0        0.0        0.0        0.0        0.0        0.0        0.0        0.0     13.4       0.2      26.3      27.5      28.6    422.57
    19     8  2024    50     2     286.8     7.6      0.0    0.0    7.5    0.0     10.7      0.0   -9.90      0.0      0.0    100      0.1      0.1   100      0.2     0.2     100     19.4    1.46      0      0      0      0      0    90.9    90.9      0     1.00      0.1      0.1      0.1   100    35.0     6.301    -9.9    0.000    0.000     100        0.00    0.000    0.000     286.8    286.8    1.46   186.5     615.5     169.9     126.7      62.3      62.3      35.8    0.000     0.000     0.000     0.000     0.000    1.46     0.00    0.00      0   -9.90   -9.00       20.1       12.7       13.0       12.5       12.3       12.2       12.1       12.0       12.0       11.9       11.9       11.9        0.0        0.0        0.0        0.0        0.0        0.0        0.0        0.0        0.0        0.0        0.0        0.0      7.6       0.1      26.3      27.4      28.5    422.57
    20     8  2024    51     2     289.5    12.9      0.0    0.0   12.4    0.5      9.6      0.0   -9.90      0.0      0.0    100      0.1      0.1   100      0.1     0.1     100     18.8    1.48      0      0      0      0      0    91.6    91.6      0     1.00      0.1      0.1      0.1   100    35.0     6.652    -9.9    0.000    0.000     100        0.00    0.000    0.000     289.5    289.5    1.48   191.8     624.2     172.3     128.4      63.2      63.2      36.3    0.000     0.000     0.000     0.000     0.000    1.48     0.00    0.00      0   -9.90   -9.00       25.1       12.4       12.6       12.3       12.2       12.1       12.0       12.0       11.9       11.9       11.9       11.8        0.0        0.0        0.0        0.0        0.0        0.0        0.0        0.0        0.0        0.0        0.0        0.0     12.9       0.1      25.9      26.8      27.8    422.57
    21     8  2024    52     2     281.6     2.7      0.0    0.0    2.7    0.0     10.5      0.0   -9.90      0.0      0.0    100      0.2      0.2   100      0.2     0.2     100     19.3    1.50      0      0      0      0      0    92.1    92.1      0     1.00      0.2      0.2      0.2   100    35.0     7.003    -9.9    0.000    0.000     100        0.00    0.000    0.000     281.6    281.6    1.50   186.0     632.8     174.7     130.4      64.2      64.2      36.8    0.000     0.000     0.000     0.000     0.000    1.50     0.00    0.00      0   -9.90   -9.00       14.7       12.6       13.0       12.5       12.3       12.2       12.1       12.0       11.9       11.9       11.9       11.9        0.0        0.0        0.0        0.0        0.0        0.0        0.0        0.0        0.0        0.0        0.0        0.0      2.7       0.2      25.7      27.3      28.8    422.57
    22     8  2024    53     2     279.8     6.2      0.0    0.0    6.2    0.0      7.7      0.0   -9.90      0.0      0.0    100      0.2      0.2   100      0.2     0.2     100     19.6    1.52      0      0      0      0      0    92.6    92.6      0     1.01      0.2      0.2      0.2   100    35.0     7.356    -9.9    0.000    0.000     100        0.00    0.000    0.000     279.8    279.8    1.52   187.3     641.3     177.0     132.2      65.1      65.1      37.3    0.000     0.000     0.000     0.000     0.000    1.52     0.00    0.00      0   -9.90   -9.00       18.2       12.1       12.1       12.1       12.0       12.0       11.9       11.9       11.9       11.8       11.8       11.8        0.0        0.0        0.0        0.0        0.0        0.0        0.0        0.0        0.0        0.0        0.0        0.0      6.2       0.2      25.8      27.6      29.4    422.57
    23     8  2024    54     2     279.3     5.4      0.0    0.0    5.4    0.0      5.7      0.0   -9.90      0.0      0.0    100      0.2      0.2   100      0.2     0.2     100     20.2    1.54      0      0      0      0      0    93.0    93.0      0     1.01      0.2      0.2      0.2   100    35.0     7.710    -9.9    0.000    0.000     100        0.00    0.000    0.000     279.3    279.3    1.54   189.4     649.8     179.4     134.2      66.1      66.1      37.8    0.000     0.000     0.000     0.000     0.000    1.54     0.00    0.00      0   -9.90   -9.00       17.6       12.2       12.3       12.1       12.0       11.9       11.9       11.8       11.8       11.8       11.8       11.8        0.0        0.0        0.0        0.0        0.0        0.0        0.0        0.0        0.0        0.0        0.0        0.0      5.4       0.2      26.5      28.9      31.4    422.57
    24     8  2024    55     2     274.3     0.6      0.0    0.0    0.6    0.0      5.4      0.0   -9.90      0.0      0.0    100      0.2      0.2   100      0.2     0.2     100     19.2    1.56      0      0      0      0      0    93.3    93.3      0     1.01      0.2      0.2      0.2   100    35.0     8.064    -9.9    0.000    0.000     100        0.00    0.000    0.000     274.3    274.3    1.56   186.7     658.3     181.7     135.6      66.8      66.8      38.3    0.000     0.000     0.000     0.000     0.000    1.56     0.00    0.00      0   -9.90   -9.00       12.2       12.2       12.3       12.2       12.1       11.9       11.9       11.9       11.8       11.8       11.8       11.8        0.0        0.0        0.0        0.0        0.0        0.0        0.0        0.0        0.0        0.0        0.0        0.0      0.6       0.2      25.7      27.2      28.7    422.57
    25     8  2024    56     3     270.7     0.3      0.0    0.0    0.3    0.0      3.7      0.0   -9.90      0.0      0.0    100      0.2      0.2   100      0.2     0.2     100     20.0    1.58      0      0      0      0      0    93.5    93.5      0     1.01      0.2      0.2      0.2   100    35.0     8.420    -9.9    0.000    0.000     100        0.00    0.000    0.000     270.7    270.7    1.58   185.7     666.7     184.0     137.7      67.9      67.9      38.8    0.000     0.000     0.000     0.000     0.000    1.58     0.00    0.00      0   -9.90   -9.00       11.8       11.8       11.8       11.8       11.8       11.8       11.8       11.8       11.8       11.8       11.8       11.8        0.0        0.0        0.0        0.0        0.0        0.0        0.0        0.0        0.0        0.0        0.0        0.0      0.3       0.2      26.1      28.5      31.0    422.57
    26     8  2024    57     3     278.0     9.2      0.0    0.0    9.1    0.1      1.5      0.0   -9.90      0.0      0.0    100      0.2      0.2   100      0.2     0.2     100     19.5    1.60      0      0      0      0      0    93.7    93.7      0     1.01      0.2      0.2      0.2   100    35.0     8.775    -9.9    0.000    0.000     100        0.00    0.000    0.000     278.0    278.0    1.60   195.7     675.1     186.4     139.2      68.6      68.6      39.3    0.000     0.000     0.000     0.000     0.000    1.60     0.00    0.00      0   -9.90   -9.00       20.7       11.7       11.7       11.7       11.7       11.7       11.7       11.7       11.7       11.7       11.7       11.7        0.0        0.0        0.0        0.0        0.0        0.0        0.0        0.0        0.0        0.0        0.0        0.0      9.2       0.2      25.7      27.5      29.3    422.57
    27     8  2024    58     3     280.3     6.1      0.0    0.0    6.1    0.0      3.6      0.0   -9.90      0.0      0.0    100      0.2      0.2   100      0.2     0.2     100     20.4    1.62      0      0      0      0      0    93.9    93.9      0     1.02      0.2      0.2      0.2   100    35.0     9.131     1.5    0.137    0.153     100        1.19    0.000    0.000     280.3    280.3    1.62   199.9     683.5     188.7     140.9      69.4      69.4      39.8    0.000     0.000     0.000     0.000     0.000    1.62     0.00    0.00      0   -9.90   -9.00       18.5       12.4       12.5       12.1       12.0       11.9       11.9       11.8       11.8       11.8       11.8       11.8        0.0        0.0        0.0        0.0        0.0        0.0        0.0        0.0        0.0        0.0        0.0        0.0      6.1       0.2      26.9      28.6      30.3    422.57
    28     8  2024    59     3     274.9     0.4      0.0    0.0    0.4    0.0      5.6      0.0   -9.90      0.0      0.0    100      0.2      0.2   100      0.2     0.2     100     20.8    1.64      0      0      0      0      0    94.0    94.0      0     1.02      0.2      0.2      0.2   100    35.0     9.487     1.8    0.175    0.194     100        1.49    0.000    0.000     274.9    274.9    1.64   196.6     691.8     191.0     142.6      70.2      70.2      40.3    0.000     0.000     0.000     0.000     0.000    1.64     0.00    0.00      0   -9.90   -9.00       12.3       12.3       12.4       12.2       12.1       12.0       12.0       11.9       11.8       11.8       11.8       11.8        0.0        0.0        0.0        0.0        0.0        0.0        0.0        0.0        0.0        0.0        0.0        0.0      0.4       0.2      27.5      29.1      30.6    422.57
    29     8  2024    60     3     271.5     0.8      0.0    0.0    0.8    0.0      4.0      0.0   -9.90      0.0      0.0    100      0.2      0.2   100      0.2     0.2     100     20.3    1.66      0      0      0      0      0    95.2    95.2      0     1.02      0.2      0.2      0.2   100    35.0     9.846     2.3    0.222    0.247     100        1.86    0.000    0.000     271.5    271.5    1.66   195.7     700.1     193.3     144.3      71.1      71.1      40.8    0.000     0.000     0.000     0.000     0.000    1.66     0.00    0.00      0   -9.90   -9.00       12.4       11.8       11.9       11.9       11.8       11.8       11.8       11.8       11.8       11.8       11.8       11.8        0.0        0.0        0.0        0.0        0.0        0.0        0.0        0.0        0.0        0.0        0.0        0.0      0.8       0.2      26.7      28.3      29.9    422.57
    30     8  2024    61     3     271.5     2.1      0.0    0.0    2.1    0.0      1.9      0.0   -9.90      0.0      0.0    100      0.2      0.2   100      0.2     0.2     100     20.0    1.68     -9      0      0      0      0    95.3    95.3      0     1.02      0.2      0.2      0.2   100    35.0    10.205     2.8    0.281    0.312     100        2.31    0.000    0.000     271.5    271.5    1.68   198.3     708.4     195.5     146.1      72.0      72.0      41.3    0.000     0.000     0.000     0.000     0.000    1.68     0.00    0.00      0   -9.90   -9.00       13.8       11.8       11.8       11.8       11.8       11.7       11.7       11.7       11.7       11.7       11.7       11.7        0.0        0.0        0.0        0.0        0.0        0.0        0.0        0.0        0.0        0.0        0.0        0.0      2.1       0.2      26.1      28.1      30.1    422.57
    31     8  2024    62     3     270.9     0.9      0.0    0.0    0.9    0.0      1.4      0.0   -9.90      0.0      0.0    100      0.2      0.2   100      0.2     0.2     100     20.1    1.70     -9      0      0      0      0    95.4    95.4      0     1.02      0.2      0.2      0.2   100    35.0    10.564     3.3    0.354    0.393     100        2.86    0.000    0.000     270.9    270.9    1.70   200.0     716.6     197.8     147.7      72.8      72.8      41.8    0.000     0.000     0.000     0.000     0.000    1.70     0.00    0.00      0   -9.90   -9.00       12.6       11.9       11.9       11.8       11.8       11.8       11.7       11.7       11.7       11.7       11.7       11.7        0.0        0.0        0.0        0.0        0.0        0.0        0.0        0.0        0.0        0.0        0.0        0.0      0.9       0.2      26.5      28.1      29.8    422.57
     1     9  2024    63     3     272.3     2.8      0.0    0.0    2.8    0.0      1.2      0.0   -9.90      0.0      0.0    100      0.2      0.2   100      0.2     0.2     100     19.6    1.71     -9      0      0      0      0    95.5    95.5      0     1.02      0.2      0.2      0.2   100    35.0    10.921     4.1    0.444    0.493     100        3.52    0.000    0.000     272.3    272.3    1.71   203.6     724.8     200.1     149.6      73.8      73.8      42.3    0.000     0.000     0.000     0.000     0.000    1.71     0.00    0.00      0   -9.90   -9.00       14.4       11.8       11.8       11.8       11.8       11.8       11.7       11.7       11.7       11.7       11.7       11.7        0.0        0.0        0.0        0.0        0.0        0.0        0.0        0.0        0.0        0.0        0.0        0.0      2.8       0.2      25.2      27.7      30.2    422.57
     2     9  2024    64     3     289.5    20.9      0.0    0.0   19.0    1.9      1.5      0.0   -9.90      0.0      0.0    100      0.2      0.2   100      0.2     0.2     100     20.0    1.73     -9      0      0      0      0    95.6    95.6      0     1.02      0.2      0.2      0.2   100    35.0    11.278     4.9    0.555    0.616     100        4.33    0.000    0.000     289.5    289.5    1.73   223.0     732.9     202.3     151.3      74.6      74.6      42.7    0.000     0.000     0.000     0.000     0.000    1.73     0.00    0.00      0   -9.90   -9.00       31.1       11.9       12.0       11.8       11.8       11.8       11.8       11.7       11.7       11.7       11.7       11.7        0.0        0.0        0.0        0.0        0.0        0.0        0.0        0.0        0.0        0.0        0.0        0.0     20.9       0.2      25.9      28.1      30.3    422.57
     3     9  2024    65     3     280.7     0.4      0.0    0.0    0.4    0.0      8.9      0.0   -9.90      0.0      0.0    100      0.2      0.2   100      0.2     0.2     100     20.5    1.75     -9      0      0      0      0    95.6    95.6      0     1.02      0.2      0.2      0.2   100    35.0    11.634     5.9    0.689    0.766     100        5.29    0.000    0.000     280.7    280.7    1.75   215.7     741.1     204.6     152.8      75.3      75.3      43.2    0.000     0.000     0.000     0.000     0.000    1.75     0.00    0.00      0   -9.90   -9.00       12.6       12.8       13.4       12.7       12.4       12.2       12.1       12.0       11.9       11.9       11.9       11.9        0.0        0.0        0.0        0.0        0.0        0.0        0.0        0.0        0.0        0.0        0.0        0.0      0.4       0.2      27.0      28.6      30.3    422.57
     4     9  2024    66     3     274.0     1.0      0.0    0.0    1.0    0.0      7.5      0.0   -9.90      0.0      0.0    100      0.2      0.2   100      0.2     0.2     100     20.4    1.77     -9      0      0      0      0    95.7    95.7      0     1.01      0.2      0.2      0.2   100    35.0    11.989     7.1    0.852    0.947     100        6.45    0.000    0.000     274.0    274.0    1.77   211.6     749.2     206.8     154.4      76.1      76.1      43.7    0.000     0.000     0.000     0.000     0.000    1.77     0.00    0.00      0   -9.90   -9.00       12.7       11.9       12.1       12.0       12.0       12.0       11.9       11.9       11.9       11.8       11.8       11.8        0.0        0.0        0.0        0.0        0.0        0.0        0.0        0.0        0.0        0.0        0.0        0.0      1.0       0.2      27.0      28.4      29.8    422.57
     5     9  2024    67     3     273.0     2.7      0.0    0.0    2.7    0.0      3.6      0.0   -9.90      0.0      0.0    100      0.2      0.2   100      0.2     0.2     100     20.5    1.79     -9      0      0      0      0    95.7    95.7      0     1.01      0.2      0.2      0.2   100    35.0    12.343     8.5    1.046    1.162     100        7.83    0.000    0.000     273.0    273.0    1.79   213.2     757.2     209.0     155.8      76.8      76.8      44.2    0.000     0.000     0.000     0.000     0.000    1.79     0.00    0.00      0   -9.90   -9.00       14.5       11.8       11.8       11.8       11.8       11.8       11.8       11.8       11.8       11.8       11.8       11.8        0.0        0.0        0.0        0.0        0.0        0.0        0.0        0.0        0.0        0.0        0.0        0.0      2.7       0.1      27.5      28.5      29.6    422.57
     6     9  2024    68     3     270.7     0.1      0.0    0.0    0.1    0.0      2.2      0.0   -9.90      0.0      0.0    100      0.2      0.2   100      0.2     0.2     100     20.1    1.81     -9      0      0      0      0    95.8    95.8      0     1.01      0.2      0.2      0.2   100    35.0    12.697    10.0    1.269    1.410     100        9.36    0.000    0.000     270.7    270.7    1.81   213.2     765.3     211.2     157.7      77.7      77.7      44.6    0.000     0.000     0.000     0.000     0.000    1.81     0.00    0.00      0   -9.90   -9.00       11.9       11.9       12.0       11.9       11.8       11.8       11.8       11.8       11.7       11.7       11.7       11.7        0.0        0.0        0.0        0.0        0.0        0.0        0.0        0.0        0.0        0.0        0.0        0.0      0.1       0.2      26.6      28.1      29.7    422.57
     7     9  2024    69     4     269.4     0.2      0.0    0.0    0.2    0.0      1.3      0.0   -9.90      0.0      0.0    100      0.2      0.2   100      0.2     0.2     100     20.1    1.83     -9      0      0      0      0    95.8    95.8      0     1.01      0.2      0.2      0.2   100    35.0    13.049    11.5    1.502    1.669     100       10.92    0.000    0.000     269.4    269.4    1.83   214.2     773.3     213.5     159.5      78.6      78.6      45.1    0.000     0.000     0.000     0.000     0.000    1.83     0.00    0.00      0   -9.90   -9.00       11.8       11.7       11.8       11.8       11.8       11.7       11.7       11.7       11.7       11.7       11.7       11.7        0.0        0.0        0.0        0.0        0.0        0.0        0.0        0.0        0.0        0.0        0.0        0.0      0.2       0.2      26.3      28.1      29.9    422.57
     8     9  2024    70     4     269.3     0.7      0.0    0.0    0.7    0.0      0.6      0.0   -9.90      0.0      0.0    100      0.2      0.2   100      0.2     0.2     100     19.9    1.85     -9      0      0      0      0    95.8    95.8      0     1.00      0.2      0.2      0.2   100    35.0    13.401    13.0    1.747    1.941     100       12.48    0.000    0.000     269.3    269.3    1.85   216.3     781.3     215.7     161.3      79.5      79.5      45.6    0.000     0.000     0.000     0.000     0.000    1.85     0.00    0.00      0   -9.90   -9.00       12.2       11.7       11.7       11.7       11.7       11.7       11.7       11.7       11.7       11.7       11.7       11.7        0.0        0.0        0.0        0.0        0.0        0.0        0.0        0.0        0.0        0.0        0.0        0.0      0.7       0.2      25.8      28.2      30.7    422.57
     9     9  2024    71     4     272.7     3.9      0.0    0.0    3.9    0.0      0.3      0.0   -9.90      0.0      0.0    100      0.1      0.1   100      0.1     0.1     100     18.9    1.87     -9      0      0      0      0    95.9    95.9      0     1.00      0.1      0.1      0.1   100    35.0    13.751    14.6    2.001    2.224     100       14.16    0.000    0.000     272.7    272.7    1.87   222.0     789.2     217.9     162.4      80.0      80.0      46.1    0.000     0.000     0.000     0.000     0.000    1.87     0.00    0.00      0   -9.90   -9.00       15.6       11.7       11.7       11.7       11.7       11.7       11.7       11.7       11.7       11.7       11.7       11.7        0.0        0.0        0.0        0.0        0.0        0.0        0.0        0.0        0.0        0.0        0.0        0.0      3.9       0.1      26.0      26.9      27.9    422.57
    10     9  2024    72     4     284.6    14.1      0.0    0.0   13.5    0.6      1.4      0.0   -9.90      0.0      0.0    100      0.2      0.2   100      0.2     0.2     100     18.9    1.89     -9      0      0      0      0    95.9    95.9      0     1.00      0.2      0.2      0.2   100    35.0    14.101    16.1    2.267    2.518     100       15.84    0.000    0.000     284.6    284.6    1.89   235.9     797.2     220.0     164.3      81.0      81.0      46.5    0.000     0.000     0.000     0.000     0.000    1.89     0.00    0.00      0   -9.90   -9.00       25.7       12.0       12.1       11.9       11.8       11.8       11.8       11.8       11.7       11.7       11.7       11.7        0.0        0.0        0.0        0.0        0.0        0.0        0.0        0.0        0.0        0.0        0.0        0.0     14.1       0.2      25.4      26.9      28.4    422.57
    11     9  2024    73     4     285.4     7.7      0.0    0.0    7.7    0.0      6.7      0.0   -9.90      0.0      0.0    100      0.2      0.2   100      0.2     0.2     100     19.8    1.90     -9      0      0      0      0    95.9    95.9      0     0.99      0.2      0.2      0.2   100    35.0    14.449    17.6    2.542    2.825     100       17.52    0.000    0.000     285.4    285.4    1.90   238.6     805.1     222.2     166.0      81.8      81.8      47.0    0.000     0.000     0.000     0.000     0.000    1.90     0.00    0.00      0   -9.90   -9.00       20.2       12.6       13.0       12.5       12.2       12.1       12.0       11.9       11.9       11.8       11.8       11.8        0.0        0.0        0.0        0.0        0.0        0.0        0.0        0.0        0.0        0.0        0.0        0.0      7.7       0.2      25.9      27.8      29.8    422.57
    12     9  2024    74     4     280.0     3.4      0.0    0.0    3.4    0.0      8.6      0.0   -9.90      0.0      0.0    100      0.2      0.2   100      0.2     0.2     100     19.5    1.92     -9      0      0      0      0    95.9    95.9      0     0.99      0.2      0.2      0.2   100    35.0    14.797    19.1    2.828    3.143     100       19.22    0.000    0.000     280.0    280.0    1.92   235.2     813.0     224.4     167.6      82.7      82.7      47.5    0.000     0.000     0.000     0.000     0.000    1.92     0.00    0.00      0   -9.90   -9.00       15.5       12.4       12.6       12.3       12.2       12.1       12.0       12.0       11.9       11.9       11.9       11.8        0.0        0.0        0.0        0.0        0.0        0.0        0.0        0.0        0.0        0.0        0.0        0.0      3.4       0.2      25.8      27.5      29.3    422.57
    13     9  2024    75     4     273.7     0.6      0.0    0.0    0.6    0.0      6.6      0.0   -9.90      0.0      0.0    100      0.2      0.2   100      0.2     0.2     100     19.9    1.94     -9      0      0      0      0    95.9    95.9      0     0.99      0.2      0.2      0.2   100    35.0    15.144    20.6    3.125    3.472     100       20.91    0.000    0.000     273.7    273.7    1.94   231.3     820.8     226.6     169.5      83.6      83.6      47.9    0.000     0.000     0.000     0.000     0.000    1.94     0.00    0.00      0   -9.90   -9.00       12.2       12.1       12.2       12.0       12.0       11.9       11.9       11.9       11.8       11.8       11.8       11.8        0.0        0.0        0.0        0.0        0.0        0.0        0.0        0.0        0.0        0.0        0.0        0.0      0.6       0.2      25.8      28.1      30.4    422.57
    14     9  2024    76     4     273.7     3.6      0.0    0.0    3.6    0.0      3.4      0.0   -9.90      0.0      0.0    100      0.2      0.2   100      0.2     0.2     100     19.7    1.96     -9      0     -9      0      0    95.3    95.3      0     0.98      0.2      0.2      0.2   100    35.0    15.486    22.2    3.431    3.812     100       22.66    0.000    0.000     273.7    273.7    1.96   233.7     828.6     228.7     170.9      84.3      84.3      48.4    0.000     0.000     0.000     0.000     0.000    1.96     0.00    0.00      0   -9.90   -9.00       15.2       11.8       11.8       11.8       11.8       11.8       11.8       11.8       11.8       11.8       11.8       11.8        0.0        0.0        0.0        0.0        0.0        0.0        0.0        0.0        0.0        0.0        0.0        0.0      3.6       0.2      25.8      27.7      29.6    422.57
    15     9  2024    77     4     281.2    10.3      0.0    0.0   10.1    0.2      2.4      0.0   -9.90      0.0      0.0    100      0.2      0.2   100      0.2     0.2     100     19.5    1.98     -9      0     -9      0      0    94.6    94.6      0     0.96      0.2      0.2      0.2   100    35.0    15.823    23.7    3.746    4.162     100       24.41    0.000    0.000     281.2    281.2    1.98   243.4     836.4     230.9     172.6      85.1      85.1      48.8    0.000     0.000     0.000     0.000     0.000    1.98     0.00    0.00      0   -9.90   -9.00       22.2       12.0       12.0       11.9       11.8       11.8       11.8       11.8       11.8       11.7       11.7       11.7        0.0        0.0        0.0        0.0        0.0        0.0        0.0        0.0        0.0        0.0        0.0        0.0     10.3       0.2      25.6      27.5      29.5    422.57
    16     9  2024    78     4     282.3     6.6      0.0    0.0    6.6    0.0      5.3      0.0   -9.90      0.0      0.0    100      0.2      0.2   100      0.2     0.2     100     19.4    2.00     -9      0     -9      0      0    93.9    93.9      0     0.95      0.2      0.2      0.2   100    35.0    16.155    25.2    4.070    4.523     100       26.26    0.000    0.000     282.3    282.3    2.00   246.5     844.2     233.0     173.8      85.7      85.7      49.3    0.000     0.000     0.000     0.000     0.000    2.00     0.00    0.00      0   -9.90   -9.00       19.1       12.5       12.7       12.3       12.1       12.0       11.9       11.9       11.8       11.8       11.8       11.8        0.0        0.0        0.0        0.0        0.0        0.0        0.0        0.0        0.0        0.0        0.0        0.0      6.6       0.2      26.1      27.4      28.6    422.57
    17     9  2024    79     4     304.1    35.1      0.0    0.0   28.8    6.3      6.9      0.0   -9.90      0.0      0.0    100      0.1      0.1   100      0.1     0.1     100     18.0    2.01     -9      0     -9      0      0    93.0    93.0      0     0.93      0.1      0.1      0.1   100    35.0    16.481    26.7    4.403    4.892     100       28.17    0.000    0.000     304.1    304.1    2.01   270.3     852.0     235.2     175.3      86.4      86.4      49.8    0.000     0.000     0.000     0.000     0.000    2.01     0.00    0.00      0   -9.90   -9.00       41.0       12.3       12.5       12.3       12.2       12.0       12.0       11.9       11.9       11.8       11.8       11.8        0.0        0.0        0.0        0.0        0.0        0.0        0.0        0.0        0.0        0.0        0.0        0.0     35.1       0.1      25.0      26.0      26.9    422.57
    18     9  2024    80     4     317.3    39.9      0.0    0.0   31.6    8.3     18.2      0.0   -9.90      0.0      0.0    100      0.2      0.2   100      0.2     0.2     100     19.6    2.03     -9      0     -9      0      0    92.0    92.0      0     0.91      0.2      0.2      0.2   100    35.0    16.801    28.2    4.744    5.271     100       29.95    0.000    0.000     317.3    317.3    2.03   285.2     859.7     237.3     177.4      87.5      87.5      50.2    0.000     0.000     0.000     0.000     0.000    2.03     0.00    0.00      0   -9.90   -9.00       42.1       13.1       14.2       13.4       12.9       12.6       12.6       12.4       12.2       12.1       12.1       12.0        0.0        0.0        0.0        0.0        0.0        0.0        0.0        0.0        0.0        0.0        0.0        0.0     39.9       0.2      25.3      27.6      29.8    422.57
    19     9  2024    81     4     294.2     4.3      0.0    0.0    4.3    0.0     27.2      0.0   -9.90      0.0      0.0    100      0.2      0.2   100      0.2     0.2     100     19.8    2.05     -9      0     -9      0      0    90.9    90.9      0     0.89      0.2      0.2      0.2   100    35.0    17.113    29.8    5.092    5.658     100       31.77    0.000    0.000     294.2    294.2    2.05   264.0     867.4     239.4     178.9      88.2      88.2      50.7    0.000     0.000     0.000     0.000     0.000    2.05     0.00    0.00      0   -9.90   -9.00       15.9       12.7       14.4       13.6       13.2       12.9       12.6       12.5       12.4       12.2       12.2       12.1        0.0        0.0        0.0        0.0        0.0        0.0        0.0        0.0        0.0        0.0        0.0        0.0      4.3       0.2      26.0      27.8      29.6    422.57
    20     9  2024    82     4     279.2     1.9      0.0    0.0    1.9    0.0     16.7      0.0   -9.90      0.0      0.0    100      0.2      0.2   100      0.2     0.2     100     20.0    2.07     -9      0     -9      0      0    89.6    89.6      0     0.87      0.2      0.2      0.2   100    35.0    17.418    31.3    5.448    6.053     100       33.57    0.000    0.000     279.2    279.2    2.07   251.6     875.1     241.5     180.6      89.1      89.1      51.1    0.000     0.000     0.000     0.000     0.000    2.07     0.00    0.00      0   -9.90   -9.00       13.8       12.1       12.3       12.3       12.2       12.2       12.1       12.1       12.0       12.0       12.0       11.9        0.0        0.0        0.0        0.0        0.0        0.0        0.0        0.0        0.0        0.0        0.0        0.0      1.9       0.2      25.9      28.1      30.4    422.57
    21     9  2024    83     4     273.4     1.4      0.0    0.0    1.4    0.0      7.1      0.0   -9.90      0.0      0.0    100      0.2      0.2   100      0.2     0.2     100     20.1    2.09     -9      0     -9      0      0    88.2    88.2      0     0.84      0.2      0.2      0.2   100    35.0    17.714    32.8    5.810    6.455     100       35.37    0.000    0.000     273.4    273.4    2.09   248.3     882.8     243.7     182.2      89.9      89.9      51.6    0.000     0.000     0.000     0.000     0.000    2.09     0.00    0.00      0   -9.90   -9.00       13.2       11.9       12.0       11.9       11.9       11.9       11.8       11.8       11.8       11.8       11.8       11.8        0.0        0.0        0.0        0.0        0.0        0.0        0.0        0.0        0.0        0.0        0.0        0.0      1.4       0.2      26.1      28.2      30.4    422.57
    22     9  2024    84     4     286.3    17.1      0.0    0.0   16.0    1.1      2.9      0.0   -9.90      0.0      0.0    100      0.2      0.2   100      0.2     0.2     100     19.5    2.10     -9      0     -9      0      0    86.6    86.6      0     0.82      0.2      0.2      0.2   100    35.0    18.001    34.3    6.177    6.864     100       37.23    0.000    0.000     286.3    286.3    2.10   263.4     890.4     245.8     183.5      90.5      90.5      52.0    0.000     0.000     0.000     0.000     0.000    2.10     0.00    0.00      0   -9.90   -9.00       28.0       11.9       11.9       11.8       11.8       11.8       11.8       11.8       11.8       11.7       11.7       11.7        0.0        0.0        0.0        0.0        0.0        0.0        0.0        0.0        0.0        0.0        0.0        0.0     17.1       0.2      25.8      27.5      29.2    422.57
    23     9  2024    85     4     288.8    10.2      0.0    0.0   10.0    0.2      7.4      0.0   -9.90      0.0      0.0    100      0.2      0.2   100      0.2     0.2     100     19.9    2.12     -9      0     -9      0      0    84.8    84.8      0     0.79      0.2      0.2      0.2   100    35.0    18.277    35.8    6.550    7.278     100       39.02    0.000    0.000     288.8    288.8    2.12   267.9     898.0     247.9     185.3      91.4      91.4      52.5    0.000     0.000     0.000     0.000     0.000    2.12     0.00    0.00      0   -9.90   -9.00       22.8       12.7       13.2       12.5       12.3       12.1       12.0       11.9       11.9       11.9       11.8       11.8        0.0        0.0        0.0        0.0        0.0        0.0        0.0        0.0        0.0        0.0        0.0        0.0     10.2       0.2      25.8      28.0      30.3    422.57
    24     9  2024    86     4     283.3     4.9      0.0    0.0    4.9    0.0     10.3      0.0   -9.90      0.0      0.0    100      0.2      0.2   100      0.2     0.2     100     19.6    2.14     -9      0     -9      0      0    82.8    82.8      0     0.76      0.2      0.2      0.2   100    35.0    18.542    37.4    6.927    7.697     100       40.82    0.000    0.000     283.3    283.3    2.14   264.4     905.6     250.0     186.9      92.2      92.2      52.9    0.000     0.000     0.000     0.000     0.000    2.14     0.00    0.00      0   -9.90   -9.00       17.2       12.6       12.8       12.5       12.3       12.2       12.1       12.0       11.9       11.9       11.9       11.9        0.0        0.0        0.0        0.0        0.0        0.0        0.0        0.0        0.0        0.0        0.0        0.0      4.9       0.2      25.2      27.6      29.9    422.57
    25     9  2024    87     4     298.1    26.6      0.0    0.0   23.2    3.4      8.1      0.0   -9.90      0.0      0.0    100      0.1      0.1   100      0.2     0.2     100     18.8    2.16     -9      0     -9      0      0    80.5    80.5      0     0.72      0.1      0.1      0.1   100    35.0    18.795    38.9    7.307    8.119     100       42.65    0.000    0.000     298.1    298.1    2.16   281.4     913.2     252.1     188.3      92.9      92.9      53.4    0.000     0.000     0.000     0.000     0.000    2.16     0.00    0.00      0   -9.90   -9.00       35.8       12.2       12.3       12.2       12.1       12.0       11.9       11.9       11.9       11.9       11.8       11.8        0.0        0.0        0.0        0.0        0.0        0.0        0.0        0.0        0.0        0.0        0.0        0.0     26.6       0.2      24.8      26.8      28.9    422.57
[...]
    10    12  2025    -9     0     264.5     0.0      0.0    0.0    0.0    0.0      0.0      0.0   -9.90      0.3      0.3     86      0.0      0.0   100      0.3     0.3      86     18.1    2.28     -9     -9     -9      0     -9     0.0     0.0      0    -9.00      0.0      0.0      0.0   100    35.1    20.220    48.0    9.706   10.784     100       50.78    0.000    0.000     264.5    264.5    2.28   262.5     965.7     266.5     199.5      98.6      98.4      56.5    0.000     0.000     0.000     0.000     0.000    2.28     0.00    0.00      0   -9.90   -9.00        7.5       11.7       11.7       11.7       11.7       11.7       11.7       11.7       11.7       11.7       11.7       11.7        0.0        0.0        0.0        0.0        0.0        0.0        0.0        0.0        0.0        0.0        0.0        0.0      0.0       0.3      22.2      26.2      30.3    424.57
    11    12  2025    -9     0     264.3     0.0      0.0    0.0    0.0    0.0      0.0      0.0   -9.90      0.3      0.3     79      0.0      0.0   100      0.3     0.3      79     17.5    2.28     -9     -9     -9      0     -9     0.0     0.0      0    -9.00      0.0      0.0      0.0   100    35.1    20.220    48.0    9.706   10.784     100       50.78    0.000    0.000     264.3    264.3    2.28   262.2     965.7     266.5     199.5      98.7      98.4      56.5    0.000     0.000     0.000     0.000     0.000    2.28     0.00    0.00      0   -9.90   -9.00        7.3       11.7       11.7       11.7       11.7       11.7       11.7       11.7       11.7       11.7       11.7       11.7        0.0        0.0        0.0        0.0        0.0        0.0        0.0        0.0        0.0        0.0        0.0        0.0      0.0       0.3      21.1      25.5      30.0    424.57
    12    12  2025    -9     0     264.0     0.0      0.0    0.0    0.0    0.0      0.0      0.0   -9.90      0.3      0.2     73      0.0      0.0   100      0.3     0.2      73     17.0    2.28     -9     -9     -9      0     -9     0.0     0.0      0    -9.00      0.0      0.0      0.0   100    35.1    20.220    48.0    9.706   10.784     100       50.78    0.000    0.000     264.0    264.0    2.28   262.0     965.7     266.5     199.5      98.7      98.4      56.5    0.000     0.000     0.000     0.000     0.000    2.28     0.00    0.00      0   -9.90   -9.00        7.0       11.7       11.7       11.7       11.7       11.7       11.7       11.7       11.7       11.7       11.7       11.7        0.0        0.0        0.0        0.0        0.0        0.0        0.0        0.0        0.0        0.0        0.0        0.0      0.0       0.3      20.1      25.0      29.9    424.57
    13    12  2025    -9     0     263.8     0.0      0.0    0.0    0.0    0.0      0.0      0.0   -9.90      0.3      0.2     67      0.0      0.0   100      0.3     0.2      67     16.2    2.28     -9     -9     -9      0     -9     0.0     0.0      0    -9.00      0.0      0.0      0.0   100    35.1    20.220    48.0    9.706   10.784     100       50.78    0.000    0.000     263.8    263.8    2.28   261.8     965.7     266.5     199.5      98.6      98.4      56.5    0.000     0.000     0.000     0.000     0.000    2.28     0.00    0.00      0   -9.90   -9.00        6.8       11.7       11.7       11.7       11.7       11.7       11.7       11.7       11.7       11.7       11.7       11.7        0.0        0.0        0.0        0.0        0.0        0.0        0.0        0.0        0.0        0.0        0.0        0.0      0.0       0.3      20.1      24.2      28.2    424.57
    14    12  2025    -9     0     263.6     0.0      0.0    0.0    0.0    0.0      0.0      0.0   -9.90      0.3      0.2     63      0.0      0.0   100      0.3     0.2      63     14.0    2.28     -9     -9     -9      0     -9     0.0     0.0      0    -9.00      0.0      0.0      0.0   100    35.1    20.220    48.0    9.706   10.784     100       50.78    0.000    0.000     263.6    263.6    2.28   261.6     965.7     266.5     199.5      98.5      98.4      56.5    0.000     0.000     0.000     0.000     0.000    2.28     0.00    0.00      0   -9.90   -9.00        6.7       11.7       11.7       11.7       11.7       11.7       11.7       11.7       11.7       11.7       11.7       11.7        0.0        0.0        0.0        0.0        0.0        0.0        0.0        0.0        0.0        0.0        0.0        0.0      0.0       0.2      18.1      22.0      25.9    424.57
    15    12  2025    -9     0     263.5     0.0      0.0    0.0    0.0    0.0      0.0      0.0   -9.90      0.3      0.2     60      0.0      0.0   100      0.3     0.2      60     14.2    2.28     -9     -9     -9      0     -9     0.0     0.0      0    -9.00      0.0      0.0      0.0   100    35.1    20.220    48.0    9.706   10.784     100       50.78    0.000    0.000     263.5    263.5    2.28   261.4     965.7     266.5     199.5      98.6      98.4      56.5    0.000     0.000     0.000     0.000     0.000    2.28     0.00    0.00      0   -9.90   -9.00        6.5       11.7       11.7       11.7       11.7       11.7       11.7       11.7       11.7       11.7       11.7       11.7        0.0        0.0        0.0        0.0        0.0        0.0        0.0        0.0        0.0        0.0        0.0        0.0      0.0       0.3      17.3      22.2      27.0    424.57
    16    12  2025    -9     0     263.3     0.0      0.0    0.0    0.0    0.0      0.0      0.0   -9.90      0.3      0.2     56      0.0      0.0   100      0.3     0.2      56     15.9    2.28     -9     -9     -9      0     -9     0.0     0.0      0    -9.00      0.0      0.0      0.0   100    35.1    20.220    48.0    9.706   10.784     100       50.78    0.000    0.000     263.3    263.3    2.28   261.2     965.7     266.5     199.5      98.6      98.4      56.5    0.000     0.000     0.000     0.000     0.000    2.28     0.00    0.00      0   -9.90   -9.00        6.3       11.7       11.7       11.7       11.7       11.7       11.7       11.7       11.7       11.7       11.7       11.7        0.0        0.0        0.0        0.0        0.0        0.0        0.0        0.0        0.0        0.0        0.0        0.0      0.0       0.3      19.5      23.9      28.3    424.57
    17    12  2025    -9     0     263.1     0.0      0.0    0.0    0.0    0.0      0.0      0.0   -9.90      0.3      0.1     53      0.0      0.0   100      0.3     0.1      53     16.0    2.28     -9     -9     -9      0     -9     0.0     0.0      0    -9.00      0.0      0.0      0.0   100    35.1    20.220    48.0    9.706   10.784     100       50.78    0.000    0.000     263.1    263.1    2.28   261.1     965.7     266.5     199.5      98.5      98.4      56.5    0.000     0.000     0.000     0.000     0.000    2.28     0.00    0.00      0   -9.90   -9.00        6.2       11.7       11.7       11.7       11.7       11.7       11.7       11.7       11.7       11.7       11.7       11.7        0.0        0.0        0.0        0.0        0.0        0.0        0.0        0.0        0.0        0.0        0.0        0.0      0.0       0.2      20.5      24.0      27.6    424.57
    18    12  2025    -9     0     263.0     0.0      0.0    0.0    0.0    0.0      0.0      0.0   -9.90      0.3      0.1     50      0.0      0.0   100      0.3     0.1      50     15.0    2.28     -9     -9     -9      0     -9     0.0     0.0      0    -9.00      0.0      0.0      0.0   100    35.1    20.220    48.0    9.706   10.784     100       50.78    0.000    0.000     263.0    263.0    2.28   261.0     965.7     266.5     199.5      98.5      98.4      56.5    0.000     0.000     0.000     0.000     0.000    2.28     0.00    0.00      0   -9.90   -9.00        6.0       11.7       11.7       11.7       11.7       11.7       11.7       11.7       11.7       11.7       11.7       11.7        0.0        0.0        0.0        0.0        0.0        0.0        0.0        0.0        0.0        0.0        0.0        0.0      0.0       0.2      19.5      23.0      26.6    424.57
    19    12  2025    -9     0     262.8     0.0      0.0    0.0    0.0    0.0      0.0      0.0   -9.90      0.3      0.2     48      0.0      0.0   100      0.3     0.2      48     14.5    2.28     -9     -9     -9      0     -9     0.0     0.0      0    -9.00      0.0      0.0      0.0   100    35.1    20.220    48.0    9.706   10.784     100       50.78    0.000    0.000     262.8    262.8    2.28   260.8     965.7     266.5     199.5      98.7      98.4      56.5    0.000     0.000     0.000     0.000     0.000    2.28     0.00    0.00      0   -9.90   -9.00        5.9       11.7       11.7       11.7       11.7       11.7       11.7       11.7       11.7       11.7       11.7       11.7        0.0        0.0        0.0        0.0        0.0        0.0        0.0        0.0        0.0        0.0        0.0        0.0      0.0       0.3      17.7      22.5      27.4    424.57
    20    12  2025    -9     0     262.7     0.0      0.0    0.0    0.0    0.0      0.0      0.0   -9.90      0.3      0.1     46      0.0      0.0   100      0.3     0.1      46     16.0    2.28     -9     -9     -9      0     -9     0.0     0.0      0    -9.00      0.0      0.0      0.0   100    35.1    20.220    48.0    9.706   10.784     100       50.78    0.000    0.000     262.7    262.7    2.28   260.7     965.7     266.5     199.5      98.7      98.4      56.5    0.000     0.000     0.000     0.000     0.000    2.28     0.00    0.00      0   -9.90   -9.00        5.7       11.7       11.7       11.7       11.7       11.7       11.7       11.7       11.7       11.7       11.7       11.7        0.0        0.0        0.0        0.0        0.0        0.0        0.0        0.0        0.0        0.0        0.0        0.0      0.0       0.3      19.2      24.0      28.8    424.57
    21    12  2025    -9     0     262.6     0.0      0.0    0.0    0.0    0.0      0.0      0.0   -9.90      0.3      0.1     43      0.0      0.0   100      0.3     0.1      43     16.2    2.28     -9     -9     -9      0     -9     0.0     0.0      0    -9.00      0.0      0.0      0.0   100    35.1    20.220    48.0    9.706   10.784     100       50.78    0.000    0.000     262.6    262.6    2.28   260.5     965.7     266.5     199.5      98.7      98.4      56.5    0.000     0.000     0.000     0.000     0.000    2.28     0.00    0.00      0   -9.90   -9.00        5.6       11.7       11.7       11.7       11.7       11.7       11.7       11.7       11.7       11.7       11.7       11.7        0.0        0.0        0.0        0.0        0.0        0.0        0.0        0.0        0.0        0.0        0.0        0.0      0.0       0.3      19.2      24.2      29.1    424.57
    22    12  2025    -9     0     262.4     0.0      0.0    0.0    0.0    0.0      0.0      0.0   -9.90      0.3      0.1     41      0.0      0.0   100      0.3     0.1      41     16.0    2.28     -9     -9     -9      0     -9     0.0     0.0      0    -9.00      0.0      0.0      0.0   100    35.1    20.220    48.0    9.706   10.784     100       50.78    0.000    0.000     262.4    262.4    2.28   260.4     965.7     266.5     199.5      98.7      98.4      56.5    0.000     0.000     0.000     0.000     0.000    2.28     0.00    0.00      0   -9.90   -9.00        5.4       11.7       11.7       11.7       11.7       11.7       11.7       11.7       11.7       11.7       11.7       11.7        0.0        0.0        0.0        0.0        0.0        0.0        0.0        0.0        0.0        0.0        0.0        0.0      0.0       0.3      19.2      24.0      28.8    424.57
    23    12  2025    -9     0     262.3     0.0      0.0    0.0    0.0    0.0      0.0      0.0   -9.90      0.3      0.1     40      0.0      0.0   100      0.3     0.1      40     16.2    2.28     -9     -9     -9      0     -9     0.0     0.0      0    -9.00      0.0      0.0      0.0   100    35.1    20.220    48.0    9.706   10.784     100       50.78    0.000    0.000     262.3    262.3    2.28   260.3     965.7     266.5     199.5      98.6      98.4      56.5    0.000     0.000     0.000     0.000     0.000    2.28     0.00    0.00      0   -9.90   -9.00        5.3       11.7       11.7       11.7       11.7       11.7       11.7       11.7       11.7       11.7       11.7       11.7        0.0        0.0        0.0        0.0        0.0        0.0        0.0        0.0        0.0        0.0        0.0        0.0      0.0       0.3      19.7      24.2      28.7    424.57
    24    12  2025    -9     0     262.2     0.0      0.0    0.0    0.0    0.0      0.0      0.0   -9.90      0.3      0.1     38      0.0      0.0   100      0.3     0.1      38     16.4    2.28     -9     -9     -9      0     -9     0.0     0.0      0    -9.00      0.0      0.0      0.0   100    35.1    20.220    48.0    9.706   10.784     100       50.78    0.000    0.000     262.2    262.2    2.28   260.1     965.7     266.5     199.5      98.6      98.4      56.5    0.000     0.000     0.000     0.000     0.000    2.28     0.00    0.00      0   -9.90   -9.00        5.2       11.7       11.7       11.7       11.7       11.7       11.7       11.7       11.7       11.7       11.7       11.7        0.0        0.0        0.0        0.0        0.0        0.0        0.0        0.0        0.0        0.0        0.0        0.0      0.0       0.3      20.4      24.4      28.3    424.57
    25    12  2025    -9     0     262.1     0.0      0.0    0.0    0.0    0.0      0.0      0.0   -9.90      0.3      0.1     36      0.0      0.0   100      0.3     0.1      36     16.0    2.28     -9     -9     -9      0     -9     0.0     0.0      0    -9.00      0.0      0.0      0.0   100    35.1    20.220    48.0    9.706   10.784     100       50.78    0.000    0.000     262.1    262.1    2.28   260.0     965.7     266.5     199.5      98.7      98.4      56.5    0.000     0.000     0.000     0.000     0.000    2.28     0.00    0.00      0   -9.90   -9.00        5.1       11.7       11.7       11.7       11.7       11.7       11.7       11.7       11.7       11.7       11.7       11.7        0.0        0.0        0.0        0.0        0.0        0.0        0.0        0.0        0.0        0.0        0.0        0.0      0.0       0.3      19.3      24.0      28.8    424.57
    26    12  2025    -9     0     262.0     0.0      0.0    0.0    0.0    0.0      0.0      0.0   -9.90      0.3      0.1     35      0.0      0.0   100      0.3     0.1      35     15.8    2.28     -9     -9     -9      0     -9     0.0     0.0      0    -9.00      0.0      0.0      0.0   100    35.1    20.220    48.0    9.706   10.784     100       50.78    0.000    0.000     262.0    262.0    2.28   259.9     965.7     266.5     199.5      98.6      98.4      56.5    0.000     0.000     0.000     0.000     0.000    2.28     0.00    0.00      0   -9.90   -9.00        5.0       11.7       11.7       11.7       11.7       11.7       11.7       11.7       11.7       11.7       11.7       11.7        0.0        0.0        0.0        0.0        0.0        0.0        0.0        0.0        0.0        0.0        0.0        0.0      0.0       0.3      19.3      23.8      28.3    424.57
    27    12  2025    -9     0     261.9     0.1      0.0    0.0    0.1    0.0      0.0      0.0   -9.90      0.3      0.2     50      0.0      0.0   100      0.3     0.2      50     15.3    2.28     -9     -9     -9      0     -9     0.0     0.0      0    -9.00      0.0      0.0      0.0   100    35.1    20.220    48.0    9.706   10.784     100       50.78    0.000    0.000     261.9    261.9    2.28   259.8     965.7     266.5     199.5      98.7      98.4      56.5    0.000     0.000     0.000     0.000     0.000    2.28     0.00    0.00      0   -9.90   -9.00        4.9       11.7       11.7       11.7       11.7       11.7       11.7       11.7       11.7       11.7       11.7       11.7        0.0        0.0        0.0        0.0        0.0        0.0        0.0        0.0        0.0        0.0        0.0        0.0      0.1       0.3      18.1      23.3      28.5    424.57
    28    12  2025    -9     0     261.7     0.0      0.0    0.0    0.0    0.0      0.0      0.0   -9.90      0.3      0.1     37      0.0      0.0   100      0.3     0.1      37     16.1    2.28     -9     -9     -9      0     -9     0.0     0.0      0    -9.00      0.0      0.0      0.0   100    35.1    20.220    48.0    9.706   10.784     100       50.78    0.000    0.000     261.7    261.7    2.28   259.7     965.7     266.5     199.5      98.8      98.4      56.5    0.000     0.000     0.000     0.000     0.000    2.28     0.00    0.00      0   -9.90   -9.00        4.7       11.7       11.7       11.7       11.7       11.7       11.7       11.7       11.7       11.7       11.7       11.7        0.0        0.0        0.0        0.0        0.0        0.0        0.0        0.0        0.0        0.0        0.0        0.0      0.0       0.3      18.6      24.1      29.6    424.57
    29    12  2025    -9     0     261.6     0.0      0.0    0.0    0.0    0.0      0.0      0.0   -9.90      0.4      0.1     35      0.0      0.0   100      0.4     0.1      35     16.8    2.28     -9     -9     -9      0     -9     0.0     0.0      0    -9.00      0.0      0.0      0.0   100    35.1    20.220    48.0    9.706   10.784     100       50.78    0.000    0.000     261.6    261.6    2.28   259.6     965.7     266.5     199.5      98.9      98.4      56.5    0.000     0.000     0.000     0.000     0.000    2.28     0.00    0.00      0   -9.90   -9.00        4.6       11.7       11.7       11.7       11.7       11.7       11.7       11.7       11.7       11.7       11.7       11.7        0.0        0.0        0.0        0.0        0.0        0.0        0.0        0.0        0.0        0.0        0.0        0.0      0.0       0.3      19.6      25.4      31.2    424.57
    30    12  2025    -9     0     261.5     0.0      0.0    0.0    0.0    0.0      0.0      0.0   -9.90      0.4      0.1     34      0.0      0.0   100      0.4     0.1      34     17.3    2.28     -9     -9     -9      0     -9     0.0     0.0      0    -9.00      0.0      0.0      0.0   100    35.1    20.220    48.0    9.706   10.784     100       50.78    0.000    0.000     261.5    261.5    2.28   259.4     965.7     266.5     199.5      98.8      98.4      56.5    0.000     0.000     0.000     0.000     0.000    2.28     0.00    0.00      0   -9.90   -9.00        4.5       11.7       11.7       11.7       11.7       11.7       11.7       11.7       11.7       11.7       11.7       11.7        0.0        0.0        0.0        0.0        0.0        0.0        0.0        0.0        0.0        0.0        0.0        0.0      0.0       0.3      20.6      25.9      31.1    424.57
    31    12  2025    -9     0     261.4     0.0      0.0    0.0    0.0    0.0      0.0      0.0   -9.90      0.4      0.1     32      0.0      0.0   100      0.4     0.1      32     17.6    2.28     -9     -9     -9      0     -9     0.0     0.0      0    -9.00      0.0      0.0      0.0   100    35.1    20.220    48.0    9.706   10.784     100       50.78    0.000    0.000     261.4    261.4    2.28   259.3     965.7     266.5     199.5      98.9      98.4      56.5    0.000     0.000     0.000     0.000     0.000    2.28     0.00    0.00      0   -9.90   -9.00        4.4       11.7       11.7       11.7       11.7       11.7       11.7       11.7       11.7       11.7       11.7       11.7        0.0        0.0        0.0        0.0        0.0        0.0        0.0        0.0        0.0        0.0        0.0        0.0      0.0       0.3      21.1      26.5      31.9    424.57
