AquaCrop 7.1 (August 2023) - Output created on (date) : 16-01-2026   at (time) : 12:17:32

    RunNr     Day1   Month1    Year1     Rain      ETo       GD     CO2      Irri   Infilt   Runoff    Drain   Upflow        E     E/Ex       Tr      TrW   Tr/Trx    SaltIn   SaltOut    SaltUp  SaltProf     Cycle   SaltStr  FertStr  WeedStr  TempStr   ExpStr   StoStr  BioMass  Brelative   HI    Y(dry)  Y(fresh)    WPet      Bin     Bout     DayN   MonthN    YearN
                                           mm       mm  degC.day    ppm        mm       mm       mm       mm       mm       mm        %       mm       mm        %    ton/ha    ton/ha    ton/ha    ton/ha      days       %        %        %        %        %        %    ton/ha        %       %    ton/ha   ton/ha    kg/m3   ton/ha   ton/ha
   Tot(1)        1        7     2011   1051.1   2432.4   3133.9   391.85    547.2   1049.1      2.0      0.0      0.0    815.7       47    831.2    831.2      100     0.000     0.000     0.000     0.000       89        0       30        0        0        1        0    19.860       99     48.2    9.568   10.631     0.82    0.000    0.000       31       12     2011  cluster_428.PRM
   Tot(2)        1        7     2012   1177.0   2446.9   3124.0   394.06    527.4   1168.3      8.8      0.0      0.0    906.8       52    829.3    829.3      100     0.000     0.000     0.000     0.000       89        0       30        0        0        1        0    19.722       99     48.0    9.472   10.525     0.82    0.000    0.000       31       12     2012  cluster_428.PRM
   Tot(3)        1        7     2013   1033.7   2453.4   3125.0   396.74    536.0   1029.1      4.6      0.0      0.0    792.9       45    832.5    832.5      100     0.000     0.000     0.000     0.000       89        0       30        0        0        1        0    19.907       99     48.2    9.590   10.656     0.82    0.000    0.000       31       12     2013  cluster_428.PRM
   Tot(4)        1        7     2014   1138.7   2442.9   3132.7   398.81    578.7   1134.8      4.0      0.0      0.0    923.7       53    827.9    827.9      100     0.000     0.000     0.000     0.000       89        0       30        0        0        1        0    19.936       99     48.2    9.604   10.671     0.82    0.000    0.000       31       12     2014  cluster_428.PRM
   Tot(5)        1        7     2015   1125.4   2438.5   3123.1   401.01    528.7   1120.1      5.4      0.0      0.0    876.5       51    830.9    830.9      100     0.000     0.000     0.000     0.000       89        0       30        0        0        0        0    19.973      100     48.2    9.622   10.691     0.82    0.000    0.000       31       12     2015  cluster_428.PRM
