AquaCrop 7.1 (August 2023) - Output created on (date) : 16-01-2026   at (time) : 12:17:32

   Run:   1
   Day Month  Year   DAP Stage   WC(2.30)   Rain     Irri   Surf   Infilt   RO    Drain       CR    Zgwt       Ex       E     E/Ex     Trx       Tr  Tr/Trx    ETx      ET  ET/ETx      GD       Z     StExp  StSto  StSen StSalt StWeed   CC      CCw     StTr  Kc(Tr)     Trx       Tr      TrW  Tr/Trx   WP    Biomass     HI    Y(dry)  Y(fresh)  Brelative    WPet      Bin     Bout  WC(2.30) Wr(2.30)     Z       Wr    Wr(SAT)    Wr(FC)   Wr(exp)   Wr(sto)   Wr(sen)   Wr(PWP)    SaltIn    SaltOut   SaltUp   Salt(2.30)  SaltZ     Z       ECe    ECsw   StSalt  Zgwt    ECgw       WC01       WC 2       WC 3       WC 4       WC 5       WC 6       WC 7       WC 8       WC 9       WC10       WC11       WC12      ECe01      ECe 2      ECe 3      ECe 4      ECe 5      ECe 6      ECe 7      ECe 8      ECe 9      ECe10      ECe11      ECe12     Rain       ETo      Tmin      Tavg      Tmax      CO2
                                      mm      mm       mm     mm     mm     mm       mm       mm      m        mm       mm     %        mm       mm    %        mm      mm       %  degC-day     m       %      %      %      %      %      %       %       %       -        mm       mm       mm    %     g/m2    ton/ha      %    ton/ha   ton/ha       %       kg/m3   ton/ha   ton/ha      mm       mm       m       mm        mm        mm        mm        mm        mm         mm    ton/ha    ton/ha    ton/ha    ton/ha    ton/ha     m      dS/m    dS/m      %     m      dS/m       0.05       0.18       0.33       0.48       0.63       0.80       1.00       1.20       1.43       1.68       1.93       2.18       0.05       0.18       0.33       0.48       0.63       0.80       1.00       1.20       1.43       1.68       1.93       2.18       mm        mm     degC      degC      degC       ppm
     1     7  2011     1     1     262.7     3.9      0.0    0.0    3.9    0.0      0.0      0.0   -9.90     17.3      9.7     56      0.0      0.0   100     17.3     9.7      56     16.3    0.30     -9     -9     -9      0     -9     0.0     0.0      0    -9.00      0.0      0.0      0.0   100     0.0     0.000    -9.9    0.000    0.000      -9        0.00    0.000    0.000     262.7    262.7    0.30    28.7     125.1      34.6      30.7      22.4      15.5       6.9    0.000     0.000     0.000     0.000     0.000    0.30     0.00    0.00      0   -9.90   -9.00        5.7       11.7       11.7       11.7       11.7       11.7       11.7       11.7       11.7       11.7       11.7       11.7        0.0        0.0        0.0        0.0        0.0        0.0        0.0        0.0        0.0        0.0        0.0        0.0      3.9      15.8      18.6      26.8      35.0    391.85
     2     7  2011     2     1     263.2     9.6      0.0    0.0    9.6    0.0      0.0      0.0   -9.90     15.1      9.1     60      0.0      0.0   100     15.1     9.1      60     18.4    0.30     -9     -9     -9      0     -9     0.0     0.0      0    -9.00      0.0      0.0      0.0   100     0.0     0.000    -9.9    0.000    0.000      -9        0.00    0.000    0.000     263.2    263.2    0.30    29.2     125.1      34.6      30.7      21.1      15.5       6.9    0.000     0.000     0.000     0.000     0.000    0.30     0.00    0.00      0   -9.90   -9.00        6.2       11.7       11.7       11.7       11.7       11.7       11.7       11.7       11.7       11.7       11.7       11.7        0.0        0.0        0.0        0.0        0.0        0.0        0.0        0.0        0.0        0.0        0.0        0.0      9.6      13.7      22.7      28.5      34.3    391.85
     3     7  2011     3     1     261.1     6.8      0.0    0.0    6.8    0.0      0.0      0.0   -9.90     15.6      8.9     57      0.0      0.0   100     15.6     8.9      57     17.1    0.30     -9     -9     -9      0     -9     0.0     0.0      0    -9.00      0.0      0.0      0.0   100     0.0     0.000    -9.9    0.000    0.000      -9        0.00    0.000    0.000     261.1    261.1    0.30    27.1     125.1      34.6      30.7      21.3      15.5       6.9    0.000     0.000     0.000     0.000     0.000    0.30     0.00    0.00      0   -9.90   -9.00        4.1       11.7       11.7       11.7       11.7       11.7       11.7       11.7       11.7       11.7       11.7       11.7        0.0        0.0        0.0        0.0        0.0        0.0        0.0        0.0        0.0        0.0        0.0        0.0      6.8      14.2      20.1      26.8      33.4    391.85
     4     7  2011     4     1     260.7     8.9      0.0    0.0    8.9    0.0      0.0      0.0   -9.90     17.4      9.3     53      0.0      0.0   100     17.4     9.3      53     16.4    0.30     -9     -9     -9      0     -9     0.0     0.0      0    -9.00      0.0      0.0      0.0   100     0.0     0.000    -9.9    0.000    0.000      -9        0.00    0.000    0.000     260.7    260.7    0.30    26.7     125.1      34.6      30.7      22.4      15.5       6.9    0.000     0.000     0.000     0.000     0.000    0.30     0.00    0.00      0   -9.90   -9.00        3.7       11.7       11.7       11.7       11.7       11.7       11.7       11.7       11.7       11.7       11.7       11.7        0.0        0.0        0.0        0.0        0.0        0.0        0.0        0.0        0.0        0.0        0.0        0.0      8.9      15.8      18.9      27.1      35.3    391.85
     5     7  2011     5     1     259.7     5.9      0.0    0.0    5.9    0.0      0.0      0.0   -9.90     14.0      6.9     49      0.0      0.0   100     14.0     6.9      49     17.6    0.32     -9     -9     -9      0     -9     0.0     0.0      0    -9.00      0.0      0.0      0.0   100     0.0     0.000    -9.9    0.000    0.000      -9        0.00    0.000    0.000     259.7    259.7    0.32    28.1     133.5      36.9      32.8      21.9      16.5       7.4    0.000     0.000     0.000     0.000     0.000    0.32     0.00    0.00      0   -9.90   -9.00        2.7       11.7       11.7       11.7       11.7       11.7       11.7       11.7       11.7       11.7       11.7       11.7        0.0        0.0        0.0        0.0        0.0        0.0        0.0        0.0        0.0        0.0        0.0        0.0      5.9      12.8      21.2      26.7      32.1    391.85
     6     7  2011     6     1     258.1     2.5      0.0    0.0    2.5    0.0      0.0      0.0   -9.90     15.3      4.1     26      0.0      0.0   100     15.3     4.1      26     16.9    0.36     -9     -9     -9      0     -9     0.0     0.0      0    -9.00      0.0      0.0      0.0   100     0.0     0.000    -9.9    0.000    0.000      -9        0.00    0.000    0.000     258.1    258.1    0.36    31.2     150.6      41.6      37.0      25.6      18.7       8.4    0.000     0.000     0.000     0.000     0.000    0.36     0.00    0.00      0   -9.90   -9.00        1.2       11.6       11.7       11.7       11.7       11.7       11.7       11.7       11.7       11.7       11.7       11.7        0.0        0.0        0.0        0.0        0.0        0.0        0.0        0.0        0.0        0.0        0.0        0.0      2.5      13.9      19.7      26.3      32.9    391.85
     7     7  2011     7     2     260.0     7.1      1.3    0.0    7.1    0.0      0.0      0.0   -9.90     16.0      6.3     40      0.1      0.1   100     16.1     6.5      40     16.6    0.40     -9      0      0      0      0     0.4     0.4      0     0.01      0.1      0.1      0.1   100    34.3     0.003    -9.9    0.000    0.000     100        0.00    0.000    0.000     260.0    260.0    0.40    37.5     166.4      46.0      46.0      28.9      28.9       9.3    0.000     0.000     0.000     0.000     0.000    0.40     0.00    0.00      0   -9.90   -9.00        9.5        9.5        9.6       11.7       11.7       11.7       11.7       11.7       11.7       11.7       11.7       11.7        0.0        0.0        0.0        0.0        0.0        0.0        0.0        0.0        0.0        0.0        0.0        0.0      7.1      14.7      19.2      26.4      33.7    391.85
     8     7  2011     8     2     259.2     8.8      0.0    0.0    8.8    0.0      0.0      0.0   -9.90     14.6      9.4     65      0.1      0.1   100     14.7     9.5      65     17.2    0.43     -9      0      0      0      0     0.5     0.5      0     0.01      0.1      0.1      0.1   100    34.3     0.006    -9.9    0.000    0.000     100        0.00    0.000    0.000     259.2    259.2    0.43    40.7     181.2      50.1      50.1      30.3      30.3      10.2    0.000     0.000     0.000     0.000     0.000    0.43     0.00    0.00      0   -9.90   -9.00        8.7        9.5        9.6       11.7       11.7       11.7       11.7       11.7       11.7       11.7       11.7       11.7        0.0        0.0        0.0        0.0        0.0        0.0        0.0        0.0        0.0        0.0        0.0        0.0      8.8      13.4      20.5      26.5      32.5    391.85
     9     7  2011     9     2     265.8    17.3      0.0    0.0   17.1    0.3      0.0      0.0   -9.90     15.5     10.4     67      0.2      0.2   100     15.7    10.6      67     17.7    0.47      0      0      0      0      0     0.6     0.6      0     0.01      0.2      0.2      0.2   100    34.3     0.010    -9.9    0.000    0.000     100        0.00    0.000    0.000     265.8    265.8    0.47    51.2     195.4      54.0      54.0      33.6      33.6      11.0    0.000     0.000     0.000     0.000     0.000    0.47     0.00    0.00      0   -9.90   -9.00       15.3        9.5        9.6       11.7       11.7       11.7       11.7       11.7       11.7       11.7       11.7       11.7        0.0        0.0        0.0        0.0        0.0        0.0        0.0        0.0        0.0        0.0        0.0        0.0     17.3      14.3      21.4      27.8      34.3    391.85
    10     7  2011    10     2     262.2     7.1      0.0    0.0    7.0    0.0      0.0      0.0   -9.90     17.1     10.4     61      0.2      0.2   100     17.3    10.6      61     17.1    0.50      0      0      0      0      0     0.7     0.7      0     0.01      0.2      0.2      0.2   100    34.3     0.014    -9.9    0.000    0.000     100        0.00    0.000    0.000     262.2    262.2    0.50    51.4     209.1      57.8      57.8      37.5      37.5      11.9    0.000     0.000     0.000     0.000     0.000    0.50     0.00    0.00      0   -9.90   -9.00        8.6       11.6        9.6       11.7       11.7       11.7       11.7       11.7       11.7       11.7       11.7       11.7        0.0        0.0        0.0        0.0        0.0        0.0        0.0        0.0        0.0        0.0        0.0        0.0      7.1      15.7      20.2      28.0      35.8    391.85
    11     7  2011    11     2     257.2     0.8      0.7    0.0    0.8    0.0      0.0      0.0   -9.90     15.9      6.3     39      0.2      0.2   100     16.2     6.5      40     16.7    0.53      5      0      0      0      0     0.8     0.8      0     0.01      0.2      0.2      0.2   100    34.3     0.019    -9.9    0.000    0.000     100        0.00    0.000    0.000     257.2    257.2    0.53    50.5     222.3      61.4      61.4      38.7      38.7      12.6    0.000     0.000     0.000     0.000     0.000    0.53     0.00    0.00      0   -9.90   -9.00        9.5        9.5        9.6        9.9       11.7       11.7       11.7       11.7       11.7       11.7       11.7       11.7        0.0        0.0        0.0        0.0        0.0        0.0        0.0        0.0        0.0        0.0        0.0        0.0      0.8      14.7      19.3      26.6      33.8    391.85
    12     7  2011    12     2     256.5     3.9      4.2    0.0    3.9    0.0      0.0      0.0   -9.90     15.7      8.6     55      0.3      0.3   100     16.0     8.9      56     17.2    0.56      0      0      0      0      0     1.0     1.0      0     0.02      0.3      0.3      0.3   100    34.3     0.025    -9.9    0.000    0.000     100        0.00    0.000    0.000     256.5    256.5    0.56    53.0     235.2      65.0      65.0      40.7      40.7      13.4    0.000     0.000     0.000     0.000     0.000    0.56     0.00    0.00      0   -9.90   -9.00        9.5        9.5        9.5        9.5       11.6       11.7       11.7       11.7       11.7       11.7       11.7       11.7        0.0        0.0        0.0        0.0        0.0        0.0        0.0        0.0        0.0        0.0        0.0        0.0      3.9      14.5      20.4      27.2      34.0    391.85
    13     7  2011    13     2     255.1     2.9      3.7    0.0    2.9    0.0      0.0      0.0   -9.90     14.7      7.6     52      0.3      0.3   100     15.0     7.9      52     17.5    0.59      0      0      0      0      0     1.2     1.2      0     0.02      0.3      0.3      0.3   100    34.3     0.032    -9.9    0.000    0.000     100        0.00    0.000    0.000     255.1    255.1    0.59    55.7     247.7      68.4      68.4      41.8      41.8      14.1    0.000     0.000     0.000     0.000     0.000    0.59     0.00    0.00      0   -9.90   -9.00        9.4        9.4        9.4        9.4       11.0       11.7       11.7       11.7       11.7       11.7       11.7       11.7        0.0        0.0        0.0        0.0        0.0        0.0        0.0        0.0        0.0        0.0        0.0        0.0      2.9      13.6      21.0      27.1      33.1    391.85
    14     7  2011    14     2     255.9    11.3      0.0    0.0   11.3    0.0      0.0      0.0   -9.90     16.2     10.1     63      0.4      0.4   100     16.5    10.5      63     17.0    0.62      0      0      0      0      0     1.4     1.4      0     0.02      0.4      0.4      0.4   100    34.3     0.041    -9.9    0.000    0.000      99        0.00    0.000    0.000     255.9    255.9    0.62    59.7     259.9      71.8      71.8      45.7      45.7      14.8    0.000     0.000     0.000     0.000     0.000    0.62     0.00    0.00      0   -9.90   -9.00       10.2        9.4        9.4        9.4       11.0       11.7       11.7       11.7       11.7       11.7       11.7       11.7        0.0        0.0        0.0        0.0        0.0        0.0        0.0        0.0        0.0        0.0        0.0        0.0     11.3      15.0      20.0      27.3      34.6    391.85
    15     7  2011    15     2     254.1     6.7      1.4    0.0    6.7    0.0      0.0      0.0   -9.90     15.4      9.4     61      0.4      0.4   100     15.8     9.8      62     17.3    0.65      0      0      0      0      0     1.6     1.6      0     0.03      0.4      0.4      0.4   100    34.3     0.050    -9.9    0.000    0.000      99        0.00    0.000    0.000     254.1    254.1    0.65    61.5     271.9      75.1      75.1      46.9      46.9      15.6    0.000     0.000     0.000     0.000     0.000    0.65     0.00    0.00      0   -9.90   -9.00        9.5        9.5        9.5        9.5       10.1       11.7       11.7       11.7       11.7       11.7       11.7       11.7        0.0        0.0        0.0        0.0        0.0        0.0        0.0        0.0        0.0        0.0        0.0        0.0      6.7      14.4      20.6      27.3      34.0    391.85
    16     7  2011    16     2     253.9     3.6      5.4    0.0    3.6    0.0      0.0      0.0   -9.90     15.9      8.7     55      0.5      0.5   100     16.4     9.2      56     16.8    0.67      0      0      0      0      0     1.9     1.9      0     0.03      0.5      0.5      0.5   100    34.3     0.062    -9.9    0.000    0.000      99        0.00    0.000    0.000     253.9    253.9    0.67    64.2     283.6      78.3      78.3      49.8      49.8      16.2    0.000     0.000     0.000     0.000     0.000    0.67     0.00    0.00      0   -9.90   -9.00        9.5        9.5        9.6        9.6        9.7       11.7       11.7       11.7       11.7       11.7       11.7       11.7        0.0        0.0        0.0        0.0        0.0        0.0        0.0        0.0        0.0        0.0        0.0        0.0      3.6      15.0      19.5      26.9      34.3    391.85
    17     7  2011    17     2     253.7     1.3      5.7    0.0    1.3    0.0      0.0      0.0   -9.90     15.8      6.6     42      0.6      0.6   100     16.4     7.2      44     16.7    0.70      4      0      0      0      0     2.2     2.2      0     0.04      0.6      0.6      0.6   100    34.3     0.076    -9.9    0.000    0.000      99        0.00    0.000    0.000     253.7    253.7    0.70    66.7     295.2      81.5      81.5      51.8      51.8      16.9    0.000     0.000     0.000     0.000     0.000    0.70     0.00    0.00      0   -9.90   -9.00        9.5        9.5        9.6        9.6        9.6       11.7       11.7       11.7       11.7       11.7       11.7       11.7        0.0        0.0        0.0        0.0        0.0        0.0        0.0        0.0        0.0        0.0        0.0        0.0      1.3      14.9      19.5      26.8      34.2    391.85
    18     7  2011    18     2     253.5     4.3      5.3    0.0    4.3    0.0      0.0      0.0   -9.90     16.2      9.1     56      0.7      0.7   100     16.9     9.8      58     16.9    0.73      0      0      0      0      0     2.6     2.6      0     0.05      0.7      0.7      0.7   100    34.3     0.092    -9.9    0.000    0.000      99        0.00    0.000    0.000     253.5    253.5    0.73    70.1     306.5      84.6      84.6      54.5      54.5      17.6    0.000     0.000     0.000     0.000     0.000    0.73     0.00    0.00      0   -9.90   -9.00        9.6        9.6        9.6        9.6        9.6       11.4       11.7       11.7       11.7       11.7       11.7       11.7        0.0        0.0        0.0        0.0        0.0        0.0        0.0        0.0        0.0        0.0        0.0        0.0      4.3      15.4      19.8      27.4      35.0    391.85
    19     7  2011    19     2     251.4     6.1      1.6    0.0    6.1    0.0      0.0      0.0   -9.90     14.6      9.0     62      0.8      0.8   100     15.3     9.8      64     16.9    0.75      0      0      0      0      0     3.1     3.1      0     0.05      0.8      0.8      0.8   100    34.3     0.111    -9.9    0.000    0.000      99        0.00    0.000    0.000     251.4    251.4    0.75    71.7     317.7      87.7      87.7      54.2      54.2      18.3    0.000     0.000     0.000     0.000     0.000    0.75     0.00    0.00      0   -9.90   -9.00        9.4        9.4        9.5        9.5        9.5       10.9       11.7       11.7       11.7       11.7       11.7       11.7        0.0        0.0        0.0        0.0        0.0        0.0        0.0        0.0        0.0        0.0        0.0        0.0      6.1      14.0      19.9      26.4      33.0    391.85
    20     7  2011    20     2     251.2     4.5      5.3    0.0    4.5    0.0      0.0      0.0   -9.90     15.6      9.0     57      1.0      1.0   100     16.6     9.9      60     16.6    0.78      0      0      0      0      0     3.7     3.7      0     0.06      1.0      1.0      1.0   100    34.3     0.133    -9.9    0.000    0.000      99        0.00    0.000    0.000     251.2    251.2    0.78    75.0     328.7      90.8      90.8      58.0      58.0      18.9    0.000     0.000     0.000     0.000     0.000    0.78     0.00    0.00      0   -9.90   -9.00        9.6        9.6        9.6        9.6        9.6       10.4       11.7       11.7       11.7       11.7       11.7       11.7        0.0        0.0        0.0        0.0        0.0        0.0        0.0        0.0        0.0        0.0        0.0        0.0      4.5      15.1      19.1      26.7      34.3    391.85
    21     7  2011    21     2     251.9    11.8      0.0    0.0   11.7    0.1      0.0      0.0   -9.90     14.9      9.9     67      1.1      1.1   100     16.0    11.1      69     17.3    0.81      0      0      0      0      0     4.3     4.3      0     0.08      1.1      1.1      1.1   100    34.3     0.159    -9.9    0.000    0.000      99        0.00    0.000    0.000     251.9    251.9    0.81    78.4     339.6      93.8      93.8      59.0      59.0      19.5    0.000     0.000     0.000     0.000     0.000    0.81     0.00    0.00      0   -9.90   -9.00       10.3        9.6        9.6        9.6        9.6       10.4       11.7       11.7       11.7       11.7       11.7       11.7        0.0        0.0        0.0        0.0        0.0        0.0        0.0        0.0        0.0        0.0        0.0        0.0     11.8      14.6      20.6      27.4      34.2    391.85
    22     7  2011    22     2     248.6     6.3      0.3    0.0    6.3    0.0      0.0      0.0   -9.90     13.4      8.7     65      1.2      1.2   100     14.5     9.9      68     17.1    0.83      0      0      0      0      0     5.1     5.1      0     0.09      1.2      1.2      1.2   100    34.3     0.189    -9.9    0.000    0.000      99        0.00    0.000    0.000     248.6    248.6    0.83    78.1     350.3      96.7      96.7      58.6      58.6      20.2    0.000     0.000     0.000     0.000     0.000    0.83     0.00    0.00      0   -9.90   -9.00        9.4        9.4        9.4        9.4        9.4        9.7       11.7       11.7       11.7       11.7       11.7       11.7        0.0        0.0        0.0        0.0        0.0        0.0        0.0        0.0        0.0        0.0        0.0        0.0      6.3      13.3      20.3      26.3      32.2    391.85
    23     7  2011    23     2     249.5     2.5      7.4    0.0    2.5    0.0      0.0      0.0   -9.90     14.7      7.4     50      1.6      1.6   100     16.3     8.9      55     18.2    0.86      0      0      0      0      0     6.0     6.0      0     0.10      1.6      1.6      1.6   100    34.3     0.225    -9.9    0.000    0.000      99        0.00    0.000    0.000     249.5    249.5    0.86    81.5     360.9      99.7      99.7      63.3      63.3      20.8    0.000     0.000     0.000     0.000     0.000    0.86     0.00    0.00      0   -9.90   -9.00        9.5        9.5        9.6        9.6        9.6        9.6       11.7       11.7       11.7       11.7       11.7       11.7        0.0        0.0        0.0        0.0        0.0        0.0        0.0        0.0        0.0        0.0        0.0        0.0      2.5      14.9      22.4      29.1      35.7    391.85
    24     7  2011    24     2     249.5     3.3      6.4    0.0    3.3    0.0      0.0      0.0   -9.90     14.5      8.0     55      1.8      1.8   100     16.3     9.8      60     16.3    0.88      0      0      0      0      0     7.1     7.1      0     0.12      1.8      1.8      1.8   100    34.3     0.267    -9.9    0.000    0.000      99        0.00    0.000    0.000     249.5    249.5    0.88    83.9     371.4     102.5     102.5      65.2      65.2      21.4    0.000     0.000     0.000     0.000     0.000    0.88     0.00    0.00      0   -9.90   -9.00        9.5        9.5        9.6        9.6        9.6        9.6       11.7       11.7       11.7       11.7       11.7       11.7        0.0        0.0        0.0        0.0        0.0        0.0        0.0        0.0        0.0        0.0        0.0        0.0      3.3      14.9      18.7      26.2      33.8    391.85
    25     7  2011    25     2     252.9    15.2      0.0    0.0   14.9    0.2      0.0      0.0   -9.90     13.3      9.6     72      2.0      2.0   100     15.3    11.6      76     16.7    0.91      0      0      0      0      0     8.4     8.4      0     0.14      2.0      2.0      2.0   100    34.3     0.316    -9.9    0.000    0.000      99        0.00    0.000    0.000     252.9    252.9    0.91    89.7     381.7     105.4     105.4      65.3      65.3      22.0    0.000     0.000     0.000     0.000     0.000    0.91     0.00    0.00      0   -9.90   -9.00       12.9        9.5        9.6        9.6        9.6        9.6       11.7       11.7       11.7       11.7       11.7       11.7        0.0        0.0        0.0        0.0        0.0        0.0        0.0        0.0        0.0        0.0        0.0        0.0     15.2      14.0      19.3      26.1      32.8    391.85
    26     7  2011    26     2     247.0     0.6      1.5    0.0    0.6    0.0      0.0      0.0   -9.90     12.0      5.8     48      2.2      2.2   100     14.1     8.0      56     18.5    0.93      0      0      0      0      0     9.9     9.9      0     0.17      2.2      2.2      2.2   100    34.3     0.373    -9.9    0.000    0.000      99        0.00    0.000    0.000     247.0    247.0    0.93    87.2     392.0     108.2     108.2      65.0      65.0      22.6    0.000     0.000     0.000     0.000     0.000    0.93     0.00    0.00      0   -9.90   -9.00        9.3        9.3        9.4        9.4        9.4        9.4       11.4       11.7       11.7       11.7       11.7       11.7        0.0        0.0        0.0        0.0        0.0        0.0        0.0        0.0        0.0        0.0        0.0        0.0      0.6      13.0      23.0      28.2      33.4    391.85
    27     7  2011    27     2     248.5     2.1      9.3    0.0    2.1    0.0      0.0      0.0   -9.90     13.9      6.9     50      3.0      3.0   100     16.9     9.9      59     16.9    0.95      1      0      0      0      0    11.6    11.6      0     0.20      3.0      3.0      3.0   100    34.3     0.440    -9.9    0.000    0.000      99        0.00    0.000    0.000     248.5    248.5    0.95    92.1     402.2     111.0     111.0      71.8      71.8      23.2    0.000     0.000     0.000     0.000     0.000    0.95     0.00    0.00      0   -9.90   -9.00        9.6        9.6        9.6        9.6        9.6        9.6       10.9       11.7       11.7       11.7       11.7       11.7        0.0        0.0        0.0        0.0        0.0        0.0        0.0        0.0        0.0        0.0        0.0        0.0      2.1      15.5      19.7      27.4      35.1    391.85
    28     7  2011    28     2     246.5     8.0      2.0    0.0    8.0    0.0      0.0      0.0   -9.90     12.5      8.6     69      3.3      3.3   100     15.8    11.9      75     17.0    0.98      0      0      0      0      0    13.7    13.7      0     0.23      3.3      3.3      3.3   100    34.3     0.518    -9.9    0.000    0.000      99        0.00    0.000    0.000     246.5    246.5    0.98    93.4     412.2     113.8     113.8      71.6      71.6      23.8    0.000     0.000     0.000     0.000     0.000    0.98     0.00    0.00      0   -9.90   -9.00        9.5        9.5        9.5        9.5        9.5        9.5       10.4       11.7       11.7       11.7       11.7       11.7        0.0        0.0        0.0        0.0        0.0        0.0        0.0        0.0        0.0        0.0        0.0        0.0      8.0      14.6      20.0      26.9      33.9    391.85
    29     7  2011    29     2     244.9     4.2      5.7    0.0    4.2    0.0      0.0      0.0   -9.90     11.4      7.8     69      3.7      3.7   100     15.0    11.5      76     17.0    1.00      0      0      0      0      0    16.2    16.2      0     0.26      3.7      3.7      3.7   100    34.3     0.609    -9.9    0.000    0.000      99        0.00    0.000    0.000     244.9    244.9    1.00    94.7     422.2     116.6     116.6      71.9      71.9      24.4    0.000     0.000     0.000     0.000     0.000    1.00     0.00    0.00      0   -9.90   -9.00        9.4        9.4        9.5        9.5        9.5        9.5        9.9       11.7       11.7       11.7       11.7       11.7        0.0        0.0        0.0        0.0        0.0        0.0        0.0        0.0        0.0        0.0        0.0        0.0      4.2      13.8      20.0      26.4      32.9    391.85
    30     7  2011    30     2     245.1     1.9      8.9    0.0    1.9    0.0      0.0      0.0   -9.90     11.3      6.3     56      4.4      4.4   100     15.7    10.7      68     16.7    1.02      1      0      0      0      0    19.0    19.0      0     0.31      4.4      4.4      4.4   100    34.3     0.714    -9.9    0.000    0.000      99        0.00    0.000    0.000     245.1    245.1    1.02    97.3     432.0     119.3     119.3      74.9      74.9      25.0    0.000     0.000     0.000     0.000     0.000    1.02     0.00    0.00      0   -9.90   -9.00        9.5        9.5        9.5        9.5        9.5        9.5        9.7       11.7       11.7       11.7       11.7       11.7        0.0        0.0        0.0        0.0        0.0        0.0        0.0        0.0        0.0        0.0        0.0        0.0      1.9      14.5      19.3      26.4      33.4    391.85
    31     7  2011    31     2     243.9     1.1      7.7    0.0    1.1    0.0      0.0      0.0   -9.90     10.0      5.1     51      4.8      4.8   100     14.8     9.9      67     17.4    1.05      5      0      0      0      0    22.3    22.3      0     0.35      4.8      4.8      4.8   100    34.3     0.834    -9.9    0.000    0.000      98        0.00    0.000    0.000     243.9    243.9    1.05    98.5     441.8     122.0     122.0      74.8      74.8      25.6    0.000     0.000     0.000     0.000     0.000    1.05     0.00    0.00      0   -9.90   -9.00        9.4        9.4        9.5        9.5        9.5        9.5        9.5       11.7       11.7       11.7       11.7       11.7        0.0        0.0        0.0        0.0        0.0        0.0        0.0        0.0        0.0        0.0        0.0        0.0      1.1      13.7      20.9      27.0      33.1    391.85
     1     8  2011    32     2     246.0     0.5     12.8    0.0    0.5    0.0      0.0      0.0   -9.90     10.6      5.0     47      6.2      6.2   100     16.8    11.2      67     17.5    1.07     12      0      0      0      0    25.7    25.7      0     0.40      6.2      6.2      6.2   100    34.3     0.971    -9.9    0.000    0.000      98        0.00    0.000    0.000     246.0    246.0    1.07   102.7     451.5     124.7     124.7      80.9      80.9      26.1    0.000     0.000     0.000     0.000     0.000    1.07     0.00    0.00      0   -9.90   -9.00        9.6        9.6        9.7        9.7        9.7        9.7        9.6       11.7       11.7       11.7       11.7       11.7        0.0        0.0        0.0        0.0        0.0        0.0        0.0        0.0        0.0        0.0        0.0        0.0      0.5      15.6      21.0      28.5      35.9    391.85
     2     8  2011    33     2     245.1     2.6      9.3    0.0    2.6    0.0      0.0      0.0   -9.90      9.1      6.1     67      6.7      6.7   100     15.8    12.8      81     17.4    1.09      0      0      0      0      0    30.3    30.3      0     0.46      6.7      6.7      6.7   100    34.3     1.128    -9.9    0.000    0.000      98        0.00    0.000    0.000     245.1    245.1    1.09   104.0     461.2     127.3     127.3      80.6      80.6      26.7    0.000     0.000     0.000     0.000     0.000    1.09     0.00    0.00      0   -9.90   -9.00        9.5        9.5        9.6        9.6        9.6        9.6        9.6       11.7       11.7       11.7       11.7       11.7        0.0        0.0        0.0        0.0        0.0        0.0        0.0        0.0        0.0        0.0        0.0        0.0      2.6      14.7      20.7      27.6      34.5    391.85
     3     8  2011    34     2     247.7    17.2      0.0    0.0   16.8    0.4      0.0      0.0   -9.90      7.7      6.9     89      7.3      7.3   100     15.0    14.2      94     17.4    1.12      0      0      0      0      0    35.8    35.8      0     0.52      7.3      7.3      7.3   100    34.3     1.307    -9.9    0.000    0.000      98        0.00    0.000    0.000     247.7    247.7    1.12   109.0     470.7     130.0     130.0      80.5      80.5      27.3    0.000     0.000     0.000     0.000     0.000    1.12     0.00    0.00      0   -9.90   -9.00       16.8        6.7        9.3        9.6        9.6        9.6        9.6       11.7       11.7       11.7       11.7       11.7        0.0        0.0        0.0        0.0        0.0        0.0        0.0        0.0        0.0        0.0        0.0        0.0     17.2      14.0      20.7      27.1      33.5    391.85
     4     8  2011    35     2     244.4     3.3      8.2    0.0    3.3    0.0      0.0      0.0   -9.90      7.0      5.9     85      8.8      8.8   100     15.8    14.7      93     17.0    1.14      0      0      0      0      0    42.2    42.2      0     0.60      8.8      8.8      8.8   100    34.3     1.511    -9.9    0.000    0.000      97        0.00    0.000    0.000     244.4    244.4    1.14   109.0     480.2     132.6     132.6      84.1      84.1      27.8    0.000     0.000     0.000     0.000     0.000    1.14     0.00    0.00      0   -9.90   -9.00        9.5        9.5        9.6        9.6        9.6        9.6        9.6       11.3       11.7       11.7       11.7       11.7        0.0        0.0        0.0        0.0        0.0        0.0        0.0        0.0        0.0        0.0        0.0        0.0      3.3      14.8      20.0      27.1      34.2    391.85
     5     8  2011    36     2     243.0     2.6     10.6    0.0    2.6    0.0      0.0      0.0   -9.90      5.7      4.7     82      9.8      9.8   100     15.5    14.5      93     16.9    1.16      0      0      0      0      0    49.7    49.7      0     0.67      9.8      9.8      9.8   100    34.3     1.742    -9.9    0.000    0.000      97        0.00    0.000    0.000     243.0    243.0    1.16   110.9     489.6     135.2     135.2      85.2      85.2      28.4    0.000     0.000     0.000     0.000     0.000    1.16     0.00    0.00      0   -9.90   -9.00        9.5        9.5        9.5        9.5        9.5        9.5        9.5       10.8       11.7       11.7       11.7       11.7        0.0        0.0        0.0        0.0        0.0        0.0        0.0        0.0        0.0        0.0        0.0        0.0      2.6      14.6      19.8      26.9      33.9    391.85
     6     8  2011    37     2     244.0     6.5     11.3    0.0    6.5    0.0      0.0      0.0   -9.90      5.2      5.0     96     11.9     11.9   100     17.1    16.9      99     16.8    1.18      0      0      0      0      0    56.6    56.6      0     0.74     11.9     11.9     11.9   100    34.3     1.995    -9.9    0.000    0.000      97        0.00    0.000    0.000     244.0    244.0    1.18   114.8     499.0     137.8     137.8      90.8      90.8      28.9    0.000     0.000     0.000     0.000     0.000    1.18     0.00    0.00      0   -9.90   -9.00        9.7        9.7        9.7        9.7        9.7        9.7        9.7       10.3       11.7       11.7       11.7       11.7        0.0        0.0        0.0        0.0        0.0        0.0        0.0        0.0        0.0        0.0        0.0        0.0      6.5      16.1      19.6      27.9      36.1    391.85
     7     8  2011    38     2     240.8     3.6      8.2    0.0    3.6    0.0      0.0      0.0   -9.90      3.8      3.8    100     11.2     11.2   100     15.0    15.0     100     17.2    1.20      0      0      0      0      0    62.5    62.5      0     0.79     11.2     11.2     11.2   100    34.3     2.266    -9.9    0.000    0.000      97        0.00    0.000    0.000     240.8    240.8    1.20   114.3     508.3     140.3     140.3      87.5      87.5      29.5    0.000     0.000     0.000     0.000     0.000    1.20     0.00    0.00      0   -9.90   -9.00        9.5        9.5        9.5        9.5        9.5        9.5        9.5        9.9       11.7       11.7       11.7       11.7        0.0        0.0        0.0        0.0        0.0        0.0        0.0        0.0        0.0        0.0        0.0        0.0      3.6      14.2      20.5      27.1      33.6    391.85
     8     8  2011    39     2     239.8     6.8      6.7    0.0    6.8    0.0      0.0      0.0   -9.90      3.1      3.1    100     11.5     11.5   100     14.6    14.6     100     17.8    1.23      0      0      0      0      0    67.5    67.5      0     0.83     11.5     11.5     11.5   100    34.3     2.552    -9.9    0.000    0.000      98        0.00    0.000    0.000     239.8    239.8    1.23   115.6     517.5     142.9     142.9      88.0      88.0      30.0    0.000     0.000     0.000     0.000     0.000    1.23     0.00    0.00      0   -9.90   -9.00        9.4        9.4        9.5        9.5        9.5        9.5        9.5        9.6       11.7       11.7       11.7       11.7        0.0        0.0        0.0        0.0        0.0        0.0        0.0        0.0        0.0        0.0        0.0        0.0      6.8      13.8      21.5      27.6      33.7    391.85
     9     8  2011    40     2     241.3     8.9      8.5    0.0    8.9    0.0      0.0      0.0   -9.90      2.8      2.8    100     13.1     13.1   100     15.9    15.9     100     17.4    1.25      0      0      0      0      0    71.7    71.7      0     0.87     13.1     13.1     13.1   100    34.3     2.849    -9.9    0.000    0.000      98        0.00    0.000    0.000     241.3    241.3    1.25   119.3     526.7     145.4     145.4      93.1      93.1      30.6    0.000     0.000     0.000     0.000     0.000    1.25     0.00    0.00      0   -9.90   -9.00        9.6        9.6        9.6        9.6        9.6        9.6        9.6        9.6       11.7       11.7       11.7       11.7        0.0        0.0        0.0        0.0        0.0        0.0        0.0        0.0        0.0        0.0        0.0        0.0      8.9      15.1      20.7      27.9      35.1    391.85
    10     8  2011    41     2     242.4     3.6     14.3    0.0    3.6    0.0      0.0      0.0   -9.90      2.5      2.5    100     14.2     14.2   100     16.8    16.8     100     17.4    1.27      0      0      0      0      0    75.3    75.3      0     0.89     14.2     14.2     14.2   100    34.3     3.155    -9.9    0.000    0.000      98        0.00    0.000    0.000     242.4    242.4    1.27   122.4     535.8     147.9     147.9      96.9      96.9      31.1    0.000     0.000     0.000     0.000     0.000    1.27     0.00    0.00      0   -9.90   -9.00        9.6        9.6        9.7        9.7        9.7        9.7        9.7        9.7       11.7       11.7       11.7       11.7        0.0        0.0        0.0        0.0        0.0        0.0        0.0        0.0        0.0        0.0        0.0        0.0      3.6      15.9      20.8      28.5      36.3    391.85
    11     8  2011    42     2     241.0    14.2      0.1    0.0   14.0    0.2      0.0      0.0   -9.90      2.0      2.0    100     13.6     13.6   100     15.6    15.6     100     16.9    1.29      0      0      0      0      0    78.3    78.3      0     0.92     13.6     13.6     13.6   100    34.3     3.469    -9.9    0.000    0.000      98        0.00    0.000    0.000     241.0    241.0    1.29   123.0     544.9     150.4     150.4      95.6      95.6      31.6    0.000     0.000     0.000     0.000     0.000    1.29     0.00    0.00      0   -9.90   -9.00        9.5        9.5        9.6        9.6        9.6        9.6        9.6        9.6       11.7       11.7       11.7       11.7        0.0        0.0        0.0        0.0        0.0        0.0        0.0        0.0        0.0        0.0        0.0        0.0     14.2      14.9      19.8      27.0      34.3    391.85
    12     8  2011    43     2     238.7     9.6      2.3    0.0    9.6    0.0      0.0      0.0   -9.90      1.5      1.5    100     12.6     12.6   100     14.1    14.1     100     17.4    1.31      0      0      0      0      0    80.9    80.9      0     0.93     12.6     12.6     12.6   100    34.3     3.790    -9.9    0.000    0.000      98        0.00    0.000    0.000     238.7    238.7    1.31   123.3     553.9     152.9     152.9      93.2      93.2      32.2    0.000     0.000     0.000     0.000     0.000    1.31     0.00    0.00      0   -9.90   -9.00        9.4        9.4        9.4        9.4        9.4        9.4        9.4        9.4       11.6       11.7       11.7       11.7        0.0        0.0        0.0        0.0        0.0        0.0        0.0        0.0        0.0        0.0        0.0        0.0      9.6      13.4      20.8      26.8      32.8    391.85
    13     8  2011    44     2     239.0     4.8     10.3    0.0    4.8    0.0      0.0      0.0   -9.90      1.4      1.4    100     13.4     13.4   100     14.8    14.8     100     16.8    1.33      0      0      0      0      0    83.1    83.1      0     0.95     13.4     13.4     13.4   100    34.3     4.116    -9.9    0.000    0.000      98        0.00    0.000    0.000     239.0    239.0    1.33   126.6     562.8     155.4     155.4      96.6      96.6      32.7    0.000     0.000     0.000     0.000     0.000    1.33     0.00    0.00      0   -9.90   -9.00        9.4        9.4        9.5        9.5        9.5        9.5        9.5        9.5       11.3       11.7       11.7       11.7        0.0        0.0        0.0        0.0        0.0        0.0        0.0        0.0        0.0        0.0        0.0        0.0      4.8      14.1      19.5      26.3      33.0    391.85
    14     8  2011    45     2     237.4     5.9      6.9    0.0    5.9    0.0      0.0      0.0   -9.90      1.2      1.2    100     13.2     13.2   100     14.4    14.4     100     16.8    1.35      0      0      0      0      0    84.9    84.9      0     0.96     13.2     13.2     13.2   100    34.3     4.446    -9.9    0.000    0.000      98        0.00    0.000    0.000     237.4    237.4    1.35   128.2     571.7     157.8     157.8      97.0      97.0      33.2    0.000     0.000     0.000     0.000     0.000    1.35     0.00    0.00      0   -9.90   -9.00        9.4        9.4        9.5        9.5        9.5        9.5        9.5        9.5       10.9       11.7       11.7       11.7        0.0        0.0        0.0        0.0        0.0        0.0        0.0        0.0        0.0        0.0        0.0        0.0      5.9      13.7      19.6      26.1      32.5    391.85
    15     8  2011    46     2     237.7     8.9      6.7    0.0    8.9    0.0      0.0      0.0   -9.90      1.1      1.1    100     14.3     14.3   100     15.3    15.3     100     17.6    1.37      0      0      0      0      0    86.5    86.5      0     0.97     14.3     14.3     14.3   100    34.3     4.780    -9.9    0.000    0.000      98        0.00    0.000    0.000     237.7    237.7    1.37   131.4     580.6     160.3     160.3     101.2     101.2      33.8    0.000     0.000     0.000     0.000     0.000    1.37     0.00    0.00      0   -9.90   -9.00        9.5        9.5        9.6        9.6        9.6        9.6        9.6        9.6       10.5       11.7       11.7       11.7        0.0        0.0        0.0        0.0        0.0        0.0        0.0        0.0        0.0        0.0        0.0        0.0      8.9      14.6      21.1      27.9      34.6    391.85
    16     8  2011    47     2     238.6     2.0     15.6    0.0    2.0    0.0      0.0      0.0   -9.90      1.0      1.0    100     15.6     15.6   100     16.6    16.6     100     17.4    1.40      1      0      0      0      0    87.8    87.8      0     0.98     15.6     15.6     15.6   100    34.3     5.117    -9.9    0.000    0.000      98        0.00    0.000    0.000     238.6    238.6    1.40   135.1     589.4     162.7     162.7     106.5     106.5      34.3    0.000     0.000     0.000     0.000     0.000    1.40     0.00    0.00      0   -9.90   -9.00        9.6        9.6        9.7        9.7        9.7        9.7        9.7        9.7       10.2       11.7       11.7       11.7        0.0        0.0        0.0        0.0        0.0        0.0        0.0        0.0        0.0        0.0        0.0        0.0      2.0      15.9      20.7      28.5      36.3    391.85
    17     8  2011    48     2     235.7     5.1      6.9    0.0    5.1    0.0      0.0      0.0   -9.90      0.8      0.8    100     14.2     14.2   100     15.0    15.0     100     17.0    1.42      0      0      0      0      0    88.9    88.9      0     0.99     14.2     14.2     14.2   100    34.3     5.457    -9.9    0.000    0.000      98        0.00    0.000    0.000     235.7    235.7    1.42   134.7     598.2     165.1     165.1     103.3     103.3      34.8    0.000     0.000     0.000     0.000     0.000    1.42     0.00    0.00      0   -9.90   -9.00        9.5        9.5        9.5        9.5        9.5        9.5        9.5        9.5        9.9       11.7       11.7       11.7        0.0        0.0        0.0        0.0        0.0        0.0        0.0        0.0        0.0        0.0        0.0        0.0      5.1      14.3      20.0      26.8      33.6    391.85
    18     8  2011    49     2     236.2     1.3     14.9    0.0    1.3    0.0      0.0      0.0   -9.90      0.7      0.7    100     14.9     14.9   100     15.7    15.7     100     16.3    1.44      5      0      0      0      0    89.8    89.8      0     1.00     14.9     14.9     14.9   100    34.3     5.799    -9.9    0.000    0.000      98        0.00    0.000    0.000     236.2    236.2    1.44   137.4     606.9     167.5     167.5     106.8     106.8      35.3    0.000     0.000     0.000     0.000     0.000    1.44     0.00    0.00      0   -9.90   -9.00        9.5        9.5        9.6        9.6        9.6        9.6        9.6        9.6        9.7       11.7       11.7       11.7        0.0        0.0        0.0        0.0        0.0        0.0        0.0        0.0        0.0        0.0        0.0        0.0      1.3      15.0      18.7      26.3      33.9    391.85
    19     8  2011    50     2     236.2     9.7      6.2    0.0    9.6    0.0      0.0      0.0   -9.90      0.7      0.7    100     15.2     15.2   100     15.8    15.8     100     16.9    1.46      0      0      0      0      0    90.6    90.6      0     1.00     15.2     15.2     15.2   100    34.3     6.143    -9.9    0.000    0.000      98        0.00    0.000    0.000     236.2    236.2    1.46   139.4     615.5     169.9     169.9     108.8     108.8      35.8    0.000     0.000     0.000     0.000     0.000    1.46     0.00    0.00      0   -9.90   -9.00        9.6        9.6        9.6        9.6        9.6        9.6        9.6        9.6        9.6       11.7       11.7       11.7        0.0        0.0        0.0        0.0        0.0        0.0        0.0        0.0        0.0        0.0        0.0        0.0      9.7      15.1      19.8      27.3      34.7    391.85
    20     8  2011    51     2     235.6     6.2      8.6    0.0    6.2    0.0      0.0      0.0   -9.90      0.6      0.6    100     14.9     14.9   100     15.5    15.5     100     17.1    1.48      0      0      0      0      0    91.3    91.3      0     1.01     14.9     14.9     14.9   100    34.3     6.488    -9.9    0.000    0.000      99        0.00    0.000    0.000     235.6    235.6    1.48   140.9     624.2     172.3     172.3     109.3     109.3      36.3    0.000     0.000     0.000     0.000     0.000    1.48     0.00    0.00      0   -9.90   -9.00        9.5        9.5        9.6        9.6        9.6        9.6        9.6        9.6        9.6       11.7       11.7       11.7        0.0        0.0        0.0        0.0        0.0        0.0        0.0        0.0        0.0        0.0        0.0        0.0      6.2      14.8      20.2      27.3      34.5    391.85
    21     8  2011    52     2     235.3     7.7      7.3    0.0    7.7    0.0      0.0      0.0   -9.90      0.5      0.5    100     14.8     14.8   100     15.3    15.3     100     16.6    1.50      0      0      0      0      0    91.9    91.9      0     1.01     14.8     14.8     14.8   100    34.3     6.835    -9.9    0.000    0.000      99        0.00    0.000    0.000     235.3    235.3    1.50   142.5     632.8     174.7     174.7     110.4     110.4      36.8    0.000     0.000     0.000     0.000     0.000    1.50     0.00    0.00      0   -9.90   -9.00        9.5        9.5        9.6        9.6        9.6        9.6        9.6        9.6        9.6       11.7       11.7       11.7        0.0        0.0        0.0        0.0        0.0        0.0        0.0        0.0        0.0        0.0        0.0        0.0      7.7      14.7      19.1      26.4      33.7    391.85
    22     8  2011    53     2     235.8     1.4     14.8    0.0    1.4    0.0      0.0      0.0   -9.90      0.5      0.5    100     15.2     15.2   100     15.7    15.7     100     16.9    1.52      4      0      0      0      0    92.3    92.3      0     1.01     15.2     15.2     15.2   100    34.3     7.183    -9.9    0.000    0.000      99        0.00    0.000    0.000     235.8    235.8    1.52   145.0     641.3     177.0     177.0     112.9     112.9      37.3    0.000     0.000     0.000     0.000     0.000    1.52     0.00    0.00      0   -9.90   -9.00        9.5        9.5        9.6        9.6        9.6        9.6        9.6        9.6        9.6       11.7       11.7       11.7        0.0        0.0        0.0        0.0        0.0        0.0        0.0        0.0        0.0        0.0        0.0        0.0      1.4      15.0      19.8      27.2      34.6    391.85
    23     8  2011    54     2     234.0    10.9      1.8    0.0   10.8    0.0      0.0      0.0   -9.90      0.4      0.4    100     14.1     14.1   100     14.5    14.5     100     16.9    1.54      0      0      0      0      0    92.8    92.8      0     1.02     14.1     14.1     14.1   100    34.3     7.531    -9.9    0.000    0.000      99        0.00    0.000    0.000     234.0    234.0    1.54   145.1     649.8     179.4     179.4     110.7     110.7      37.8    0.000     0.000     0.000     0.000     0.000    1.54     0.00    0.00      0   -9.90   -9.00        9.4        9.4        9.5        9.5        9.5        9.5        9.5        9.5        9.5       11.7       11.7       11.7        0.0        0.0        0.0        0.0        0.0        0.0        0.0        0.0        0.0        0.0        0.0        0.0     10.9      13.8      19.8      26.4      32.9    391.85
    24     8  2011    55     2     233.2    12.6      0.0    0.0   12.5    0.1      0.0      0.0   -9.90      0.3      0.3    100     12.9     12.9   100     13.3    13.3     100     17.7    1.56      0      0      0      0      0    93.1    93.1      0     1.02     12.9     12.9     12.9   100    34.3     7.881    -9.9    0.000    0.000      99        0.00    0.000    0.000     233.2    233.2    1.56   146.3     658.3     181.7     181.7     108.3     108.3      38.3    0.000     0.000     0.000     0.000     0.000    1.56     0.00    0.00      0   -9.90   -9.00       18.9        6.6        6.7        8.3        9.5        9.5        9.5        9.5        9.5       11.7       11.7       11.7        0.0        0.0        0.0        0.0        0.0        0.0        0.0        0.0        0.0        0.0        0.0        0.0     12.6      12.7      21.5      26.9      32.2    391.85
    25     8  2011    56     3     234.0     2.5     13.1    0.0    2.5    0.0      0.0      0.0   -9.90      0.3      0.3    100     14.5     14.5   100     14.8    14.8     100     16.7    1.58      0      0      0      0      0    93.4    93.4      0     1.02     14.5     14.5     14.5   100    34.3     8.231    -9.9    0.000    0.000      99        0.00    0.000    0.000     234.0    234.0    1.58   150.0     666.7     184.0     184.0     114.8     114.8      38.8    0.000     0.000     0.000     0.000     0.000    1.58     0.00    0.00      0   -9.90   -9.00        9.5        9.5        9.5        9.5        9.5        9.5        9.5        9.5        9.5       11.5       11.7       11.7        0.0        0.0        0.0        0.0        0.0        0.0        0.0        0.0        0.0        0.0        0.0        0.0      2.5      14.2      19.3      26.3      33.2    391.85
    26     8  2011    57     3     233.4     3.9     10.6    0.0    3.9    0.0      0.0      0.0   -9.90      0.3      0.3    100     14.7     14.7   100     15.0    15.0     100     16.9    1.60      0      0      0      0      0    93.6    93.6      0     1.02     14.7     14.7     14.7   100    34.3     8.582    -9.9    0.000    0.000      99        0.00    0.000    0.000     233.4    233.4    1.60   152.4     675.1     186.4     186.4     116.9     116.9      39.3    0.000     0.000     0.000     0.000     0.000    1.60     0.00    0.00      0   -9.90   -9.00        9.5        9.5        9.5        9.5        9.5        9.5        9.5        9.5        9.5       11.1       11.7       11.7        0.0        0.0        0.0        0.0        0.0        0.0        0.0        0.0        0.0        0.0        0.0        0.0      3.9      14.4      19.9      26.8      33.8    391.85
    27     8  2011    58     3     231.5    10.3      2.4    0.0   10.3    0.0      0.0      0.0   -9.90      0.3      0.3    100     14.3     14.3   100     14.6    14.6     100     16.9    1.62      0      0      0      0      0    93.8    93.8      0     1.02     14.3     14.3     14.3   100    34.3     8.933     1.5    0.135    0.150      99        0.02    0.000    0.000     231.5    231.5    1.62   153.5     683.5     188.7     188.7     116.7     116.7      39.8    0.000     0.000     0.000     0.000     0.000    1.62     0.00    0.00      0   -9.90   -9.00        9.4        9.4        9.5        9.5        9.5        9.5        9.5        9.5        9.5       10.7       11.7       11.7        0.0        0.0        0.0        0.0        0.0        0.0        0.0        0.0        0.0        0.0        0.0        0.0     10.3      13.9      19.8      26.4      33.1    391.85
    28     8  2011    59     3     231.9    10.6      5.1    0.0   10.6    0.0      0.0      0.0   -9.90      0.3      0.3    100     15.1     15.1   100     15.4    15.4     100     17.1    1.64      0      0      0      0      0    93.9    93.9      0     1.02     15.1     15.1     15.1   100    34.3     9.284     1.9    0.172    0.191      99        0.02    0.000    0.000     231.9    231.9    1.64   156.6     691.8     191.0     191.0     120.9     120.9      40.3    0.000     0.000     0.000     0.000     0.000    1.64     0.00    0.00      0   -9.90   -9.00        9.5        9.5        9.6        9.6        9.6        9.6        9.6        9.6        9.6       10.3       11.7       11.7        0.0        0.0        0.0        0.0        0.0        0.0        0.0        0.0        0.0        0.0        0.0        0.0     10.6      14.7      20.2      27.4      34.5    391.85
    29     8  2011    60     3     232.1     1.9     14.3    0.0    1.9    0.0      0.0      0.0   -9.90      0.3      0.3    100     15.7     15.7   100     15.9    15.9     100     17.0    1.66      1      0      0      0      0    94.0    94.0      0     1.03     15.7     15.7     15.7   100    34.3     9.635     2.3    0.218    0.242      99        0.03    0.000    0.000     232.1    232.1    1.66   159.2     700.1     193.3     193.3     124.3     124.3      40.8    0.000     0.000     0.000     0.000     0.000    1.66     0.00    0.00      0   -9.90   -9.00        9.6        9.6        9.6        9.6        9.6        9.6        9.6        9.6        9.6       10.0       11.7       11.7        0.0        0.0        0.0        0.0        0.0        0.0        0.0        0.0        0.0        0.0        0.0        0.0      1.9      15.3      20.0      27.6      35.2    391.85
    30     8  2011    61     3     230.6     2.6     11.3    0.0    2.6    0.0      0.0      0.0   -9.90      0.2      0.2    100     15.2     15.2   100     15.4    15.4     100     17.1    1.68      0      0      0      0      0    95.3    95.3      0     1.03     15.2     15.2     15.2   100    34.3     9.990     2.8    0.276    0.306      99        0.04    0.000    0.000     230.6    230.6    1.68   159.9     708.4     195.5     195.5     123.8     123.8      41.3    0.000     0.000     0.000     0.000     0.000    1.68     0.00    0.00      0   -9.90   -9.00        9.5        9.5        9.6        9.6        9.6        9.6        9.6        9.6        9.6        9.8       11.7       11.7        0.0        0.0        0.0        0.0        0.0        0.0        0.0        0.0        0.0        0.0        0.0        0.0      2.6      14.7      20.3      27.4      34.6    391.85
    31     8  2011    62     3     232.4     6.5     11.9    0.0    6.5    0.0      0.0      0.0   -9.90      0.2      0.2    100     16.4     16.4   100     16.6    16.6     100     15.4    1.70     -9      0      0      0      0    95.4    95.4      0     1.03     16.4     16.4     16.4   100    34.3    10.344     3.4    0.348    0.386      99        0.05    0.000    0.000     232.4    232.4    1.70   163.7     716.6     197.8     197.8     129.5     129.5      41.8    0.000     0.000     0.000     0.000     0.000    1.70     0.00    0.00      0   -9.90   -9.00        9.6        9.6        9.7        9.7        9.7        9.7        9.7        9.7        9.7        9.7       11.7       11.7        0.0        0.0        0.0        0.0        0.0        0.0        0.0        0.0        0.0        0.0        0.0        0.0      6.5      15.9      16.8      25.8      34.8    391.85
     1     9  2011    63     3     229.5     9.6      2.3    0.0    9.6    0.0      0.0      0.0   -9.90      0.1      0.1    100     14.7     14.7   100     14.9    14.9     100     17.8    1.71     -9      0      0      0      0    95.5    95.5      0     1.03     14.7     14.7     14.7   100    34.3    10.697     4.1    0.436    0.485      99        0.06    0.000    0.000     229.5    229.5    1.71   162.8     724.8     200.1     200.1     125.3     125.3      42.3    0.000     0.000     0.000     0.000     0.000    1.71     0.00    0.00      0   -9.90   -9.00        9.5        9.5        9.5        9.5        9.5        9.5        9.5        9.5        9.5        9.6       11.7       11.7        0.0        0.0        0.0        0.0        0.0        0.0        0.0        0.0        0.0        0.0        0.0        0.0      9.6      14.3      21.5      28.1      34.7    391.85
     2     9  2011    64     3     227.1     9.7      1.5    0.0    9.7    0.0      0.0      0.0   -9.90      0.1      0.1    100     13.5     13.5   100     13.6    13.6     100     16.6    1.73     -9      0      0      0      0    95.6    95.6      0     1.03     13.5     13.5     13.5   100    34.3    11.049     4.9    0.545    0.606      99        0.07    0.000    0.000     227.1    227.1    1.73   162.4     732.9     202.3     202.3     122.2     122.2      42.7    0.000     0.000     0.000     0.000     0.000    1.73     0.00    0.00      0   -9.90   -9.00        9.3        9.3        9.4        9.4        9.4        9.4        9.4        9.4        9.4        9.4       11.7       11.7        0.0        0.0        0.0        0.0        0.0        0.0        0.0        0.0        0.0        0.0        0.0        0.0      9.7      13.1      19.2      25.4      31.7    391.85
     3     9  2011    65     3     231.2     4.8     15.1    0.0    4.8    0.0      0.0      0.0   -9.90      0.1      0.1    100     15.7     15.7   100     15.8    15.8     100     17.2    1.75     -9      0      0      0      0    95.6    95.6      0     1.02     15.7     15.7     15.7   100    34.3    11.400     5.9    0.678    0.753      99        0.08    0.000    0.000     231.2    231.2    1.75   168.1     741.1     204.6     204.6     131.8     131.8      43.2    0.000     0.000     0.000     0.000     0.000    1.75     0.00    0.00      0   -9.90   -9.00        9.6        9.6        9.6        9.6        9.6        9.6        9.6        9.6        9.6        9.6       11.7       11.7        0.0        0.0        0.0        0.0        0.0        0.0        0.0        0.0        0.0        0.0        0.0        0.0      4.8      15.3      20.4      28.0      35.6    391.85
     4     9  2011    66     3     230.2     7.3      7.0    0.0    7.3    0.0      0.0      0.0   -9.90      0.1      0.1    100     15.1     15.1   100     15.2    15.2     100     16.3    1.77     -9      0      0      0      0    95.7    95.7      0     1.02     15.1     15.1     15.1   100    34.3    11.751     7.1    0.838    0.931      99        0.10    0.000    0.000     230.2    230.2    1.77   169.0     749.2     206.8     206.8     131.3     131.3      43.7    0.000     0.000     0.000     0.000     0.000    1.77     0.00    0.00      0   -9.90   -9.00        9.5        9.5        9.6        9.6        9.6        9.6        9.6        9.6        9.6        9.6       11.7       11.7        0.0        0.0        0.0        0.0        0.0        0.0        0.0        0.0        0.0        0.0        0.0        0.0      7.3      14.8      18.5      26.2      33.9    391.85
     5     9  2011    67     3     229.8     8.5      6.1    0.0    8.5    0.0      0.0      0.0   -9.90      0.1      0.1    100     14.9     14.9   100     15.0    15.0     100     16.8    1.79     -9      0      0      0      0    95.7    95.7      0     1.02     14.9     14.9     14.9   100    34.3    12.100     8.5    1.029    1.143      99        0.12    0.000    0.000     229.8    229.8    1.79   170.4     757.2     209.0     209.0     131.9     131.9      44.2    0.000     0.000     0.000     0.000     0.000    1.79     0.00    0.00      0   -9.90   -9.00        9.5        9.5        9.5        9.5        9.5        9.5        9.5        9.5        9.5        9.5       11.7       11.7        0.0        0.0        0.0        0.0        0.0        0.0        0.0        0.0        0.0        0.0        0.0        0.0      8.5      14.6      19.5      26.8      34.1    391.85
     6     9  2011    68     3     230.1    15.1      0.5    0.0   14.9    0.2      0.0      0.0   -9.90      0.1      0.1    100     15.1     15.1   100     15.2    15.2     100     17.2    1.81     -9      0      0      0      0    95.8    95.8      0     1.02     15.1     15.1     15.1   100    34.3    12.449    10.0    1.249    1.387      99        0.15    0.000    0.000     230.1    230.1    1.81   172.9     765.3     211.2     211.2     134.2     134.2      44.6    0.000     0.000     0.000     0.000     0.000    1.81     0.00    0.00      0   -9.90   -9.00        9.5        9.5        9.6        9.6        9.6        9.6        9.6        9.6        9.6        9.6       11.6       11.7        0.0        0.0        0.0        0.0        0.0        0.0        0.0        0.0        0.0        0.0        0.0        0.0     15.1      14.8      20.4      27.7      35.0    391.85
     7     9  2011    69     4     227.1     5.6      5.3    0.0    5.6    0.0      0.0      0.0   -9.90      0.1      0.1    100     13.8     13.8   100     13.9    13.9     100     17.3    1.83     -9      0      0      0      0    95.8    95.8      0     1.01     13.8     13.8     13.8   100    34.3    12.797    11.6    1.479    1.643      99        0.17    0.000    0.000     227.1    227.1    1.83   172.7     773.3     213.5     213.5     130.8     130.8      45.1    0.000     0.000     0.000     0.000     0.000    1.83     0.00    0.00      0   -9.90   -9.00        9.4        9.4        9.4        9.4        9.4        9.4        9.4        9.4        9.4        9.4       11.4       11.7        0.0        0.0        0.0        0.0        0.0        0.0        0.0        0.0        0.0        0.0        0.0        0.0      5.6      13.6      20.6      26.9      33.3    391.85
     8     9  2011    70     4     229.2     5.9     11.6    0.0    5.9    0.0      0.0      0.0   -9.90      0.1      0.1    100     15.3     15.3   100     15.4    15.4     100     16.7    1.85     -9      0      0      0      0    95.8    95.8      0     1.01     15.3     15.3     15.3   100    34.3    13.144    13.1    1.719    1.910      99        0.20    0.000    0.000     229.2    229.2    1.85   177.6     781.3     215.7     215.7     138.3     138.3      45.6    0.000     0.000     0.000     0.000     0.000    1.85     0.00    0.00      0   -9.90   -9.00        9.6        9.6        9.6        9.6        9.6        9.6        9.6        9.6        9.6        9.6       11.0       11.7        0.0        0.0        0.0        0.0        0.0        0.0        0.0        0.0        0.0        0.0        0.0        0.0      5.9      15.2      19.4      27.2      35.0    391.85
     9     9  2011    71     4     227.6     4.8      8.6    0.0    4.8    0.0      0.0      0.0   -9.90      0.1      0.1    100     15.0     15.0   100     15.1    15.1     100     16.4    1.87     -9      0      0      0      0    95.9    95.9      0     1.01     15.0     15.0     15.0   100    34.3    13.490    14.6    1.970    2.189      99        0.22    0.000    0.000     227.6    227.6    1.87   178.8     789.2     217.9     217.9     138.4     138.4      46.1    0.000     0.000     0.000     0.000     0.000    1.87     0.00    0.00      0   -9.90   -9.00        9.5        9.5        9.6        9.6        9.6        9.6        9.6        9.6        9.6        9.6       10.6       11.7        0.0        0.0        0.0        0.0        0.0        0.0        0.0        0.0        0.0        0.0        0.0        0.0      4.8      14.8      18.8      26.5      34.2    391.85
    10     9  2011    72     4     226.7     3.4     10.6    0.0    3.4    0.0      0.0      0.0   -9.90      0.1      0.1    100     14.9     14.9   100     15.0    15.0     100     16.9    1.89     -9      0      0      0      0    95.9    95.9      0     1.01     14.9     14.9     14.9   100    34.3    13.835    16.1    2.232    2.480      99        0.25    0.000    0.000     226.7    226.7    1.89   180.5     797.2     220.0     220.0     139.8     139.8      46.5    0.000     0.000     0.000     0.000     0.000    1.89     0.00    0.00      0   -9.90   -9.00        9.5        9.5        9.6        9.6        9.6        9.6        9.6        9.6        9.6        9.6       10.3       11.7        0.0        0.0        0.0        0.0        0.0        0.0        0.0        0.0        0.0        0.0        0.0        0.0      3.4      14.8      19.7      27.2      34.7    391.85
    11     9  2011    73     4     222.8     4.8      4.7    0.0    4.8    0.0      0.0      0.0   -9.90      0.1      0.1    100     13.3     13.3   100     13.4    13.4     100     17.2    1.90     -9      0      0      0      0    95.9    95.9      0     1.00     13.3     13.3     13.3   100    34.3    14.179    17.7    2.504    2.782      99        0.27    0.000    0.000     222.8    222.8    1.90   179.1     805.1     222.2     222.2     134.9     134.9      47.0    0.000     0.000     0.000     0.000     0.000    1.90     0.00    0.00      0   -9.90   -9.00        9.4        9.4        9.4        9.4        9.4        9.4        9.4        9.4        9.4        9.4        9.9       11.7        0.0        0.0        0.0        0.0        0.0        0.0        0.0        0.0        0.0        0.0        0.0        0.0      4.8      13.3      20.4      26.6      32.8    391.85
    12     9  2011    74     4     222.1    11.7      1.0    0.0   11.6    0.0      0.0      0.0   -9.90      0.1      0.1    100     13.2     13.2   100     13.3    13.3     100     18.2    1.92     -9      0      0      0      0    95.9    95.9      0     1.00     13.2     13.2     13.2   100    34.3    14.522    19.2    2.786    3.096      99        0.30    0.000    0.000     222.1    222.1    1.92   180.5     813.0     224.4     224.4     136.0     136.0      47.5    0.000     0.000     0.000     0.000     0.000    1.92     0.00    0.00      0   -9.90   -9.00        9.4        9.4        9.4        9.4        9.4        9.4        9.4        9.4        9.4        9.4        9.7       11.7        0.0        0.0        0.0        0.0        0.0        0.0        0.0        0.0        0.0        0.0        0.0        0.0     11.7      13.2      22.4      28.2      33.9    391.85
    13     9  2011    75     4     221.9     0.2     13.0    0.0    0.2    0.0      0.0      0.0   -9.90      0.1      0.1    100     13.3     13.3   100     13.4    13.4     100     16.9    1.94     -9      0      0      0      0    95.9    95.9      0     1.00     13.3     13.3     13.3   100    34.3    14.865    20.7    3.078    3.421      99        0.33    0.000    0.000     221.9    221.9    1.94   182.3     820.8     226.6     226.6     137.7     137.7      47.9    0.000     0.000     0.000     0.000     0.000    1.94     0.00    0.00      0   -9.90   -9.00        9.4        9.4        9.4        9.4        9.4        9.4        9.4        9.4        9.4        9.4        9.5       11.7        0.0        0.0        0.0        0.0        0.0        0.0        0.0        0.0        0.0        0.0        0.0        0.0      0.2      13.3      19.8      26.2      32.6    391.85
    14     9  2011    76     4     224.3     7.6      9.3    0.0    7.6    0.0      0.0      0.0   -9.90      0.1      0.1    100     14.3     14.3   100     14.5    14.5     100     17.3    1.96     -9      0     -9      0      0    95.3    95.3      0     0.98     14.3     14.3     14.3   100    34.3    15.202    22.2    3.380    3.756      99        0.35    0.000    0.000     224.3    224.3    1.96   186.4     828.6     228.7     228.7     144.2     144.2      48.4    0.000     0.000     0.000     0.000     0.000    1.96     0.00    0.00      0   -9.90   -9.00        9.5        9.5        9.5        9.5        9.5        9.5        9.5        9.5        9.5        9.5        9.5       11.7        0.0        0.0        0.0        0.0        0.0        0.0        0.0        0.0        0.0        0.0        0.0        0.0      7.6      14.6      20.6      27.8      34.9    391.85
    15     9  2011    77     4     224.0     9.5      4.3    0.0    9.5    0.0      0.0      0.0   -9.90      0.2      0.2    100     14.0     14.0   100     14.2    14.2     100     17.4    1.98     -9      0     -9      0      0    94.6    94.6      0     0.97     14.0     14.0     14.0   100    34.3    15.535    23.8    3.691    4.102      99        0.38    0.000    0.000     224.0    224.0    1.98   187.8     836.4     230.9     230.9     144.8     144.8      48.8    0.000     0.000     0.000     0.000     0.000    1.98     0.00    0.00      0   -9.90   -9.00        9.5        9.5        9.5        9.5        9.5        9.5        9.5        9.5        9.5        9.5        9.5       11.7        0.0        0.0        0.0        0.0        0.0        0.0        0.0        0.0        0.0        0.0        0.0        0.0      9.5      14.4      20.8      27.8      34.8    391.85
    16     9  2011    78     4     223.7     5.7      7.9    0.0    5.7    0.0      0.0      0.0   -9.90      0.3      0.3    100     13.6     13.6   100     13.9    13.9     100     16.7    2.00     -9      0     -9      0      0    93.9    93.9      0     0.96     13.6     13.6     13.6   100    34.3    15.863    25.3    4.011    4.457      99        0.41    0.000    0.000     223.7    223.7    2.00   189.3     844.2     233.0     233.0     145.5     145.5      49.3    0.000     0.000     0.000     0.000     0.000    2.00     0.00    0.00      0   -9.90   -9.00        9.5        9.5        9.5        9.5        9.5        9.5        9.5        9.5        9.5        9.5        9.5       11.7        0.0        0.0        0.0        0.0        0.0        0.0        0.0        0.0        0.0        0.0        0.0        0.0      5.7      14.2      19.4      26.6      33.9    391.85
    17     9  2011    79     4     224.3     8.3      6.4    0.0    8.3    0.0      0.0      0.0   -9.90      0.4      0.4    100     13.7     13.7   100     14.0    14.0     100     16.7    2.01     -9      0     -9      0      0    93.0    93.0      0     0.94     13.7     13.7     13.7   100    34.3    16.185    26.8    4.340    4.822      99        0.43    0.000    0.000     224.3    224.3    2.01   191.7     852.0     235.2     235.2     148.2     148.2      49.8    0.000     0.000     0.000     0.000     0.000    2.01     0.00    0.00      0   -9.90   -9.00        9.5        9.5        9.5        9.5        9.5        9.5        9.5        9.5        9.5        9.5        9.5       11.7        0.0        0.0        0.0        0.0        0.0        0.0        0.0        0.0        0.0        0.0        0.0        0.0      8.3      14.6      19.3      26.9      34.4    391.85
    18     9  2011    80     4     221.3     1.1      8.3    0.0    1.1    0.0      0.0      0.0   -9.90      0.4      0.4    100     12.1     12.1   100     12.5    12.5     100     17.2    2.03     -9      0     -9      0      0    92.0    92.0      0     0.92     12.1     12.1     12.1   100    34.3    16.500    28.3    4.676    5.196      99        0.46    0.000    0.000     221.3    221.3    2.03   190.4     859.7     237.3     237.3     143.4     143.4      50.2    0.000     0.000     0.000     0.000     0.000    2.03     0.00    0.00      0   -9.90   -9.00        9.3        9.3        9.4        9.4        9.4        9.4        9.4        9.4        9.4        9.4        9.4       11.7        0.0        0.0        0.0        0.0        0.0        0.0        0.0        0.0        0.0        0.0        0.0        0.0      1.1      13.1      20.4      26.6      32.9    391.85
    19     9  2011    81     4     223.1     7.3      7.6    0.0    7.3    0.0      0.0      0.0   -9.90      0.5      0.5    100     12.6     12.6   100     13.1    13.1     100     17.1    2.05     -9      0     -9      0      0    90.9    90.9      0     0.90     12.6     12.6     12.6   100    34.3    16.809    29.9    5.020    5.578      99        0.49    0.000    0.000     223.1    223.1    2.05   193.9     867.4     239.4     239.4     148.4     148.4      50.7    0.000     0.000     0.000     0.000     0.000    2.05     0.00    0.00      0   -9.90   -9.00        9.4        9.4        9.5        9.5        9.5        9.5        9.5        9.5        9.5        9.5        9.5       11.7        0.0        0.0        0.0        0.0        0.0        0.0        0.0        0.0        0.0        0.0        0.0        0.0      7.3      14.0      20.3      27.2      34.1    391.85
    20     9  2011    82     4     222.5    11.1      0.0    0.0   11.0    0.0      0.0      0.0   -9.90      0.6      0.6    100     11.0     11.0   100     11.6    11.6     100     17.4    2.07     -9      0     -9      0      0    89.6    89.6      0     0.88     11.0     11.0     11.0   100    34.3    17.109    31.4    5.371    5.967      99        0.52    0.000    0.000     222.5    222.5    2.07   195.5     875.1     241.5     241.5     143.6     143.6      51.1    0.000     0.000     0.000     0.000     0.000    2.07     0.00    0.00      0   -9.90   -9.00       17.2        6.6        6.8        9.5        9.5        9.5        9.5        9.5        9.5        9.5        9.5       11.7        0.0        0.0        0.0        0.0        0.0        0.0        0.0        0.0        0.0        0.0        0.0        0.0     11.1      12.6      20.9      26.6      32.4    391.85
    21     9  2011    83     4     222.1     3.1      9.2    0.0    3.1    0.0      0.0      0.0   -9.90      0.8      0.8    100     11.9     11.9   100     12.6    12.6     100     17.1    2.09     -9      0     -9      0      0    88.2    88.2      0     0.85     11.9     11.9     11.9   100    34.3    17.401    32.9    5.728    6.364      99        0.55    0.000    0.000     222.1    222.1    2.09   197.9     882.8     243.7     243.7     150.7     150.7      51.6    0.000     0.000     0.000     0.000     0.000    2.09     0.00    0.00      0   -9.90   -9.00        9.4        9.4        9.5        9.5        9.5        9.5        9.5        9.5        9.5        9.5        9.5       11.4        0.0        0.0        0.0        0.0        0.0        0.0        0.0        0.0        0.0        0.0        0.0        0.0      3.1      13.9      20.1      27.1      34.0    391.85
    22     9  2011    84     4     221.5     4.0      8.0    0.0    4.0    0.0      0.0      0.0   -9.90      0.9      0.9    100     11.6     11.6   100     12.6    12.6     100     17.4    2.10     -9      0     -9      0      0    86.6    86.6      0     0.83     11.6     11.6     11.6   100    34.3    17.684    34.4    6.091    6.768      99        0.57    0.000    0.000     221.5    221.5    2.10   200.2     890.4     245.8     245.8     152.9     152.9      52.0    0.000     0.000     0.000     0.000     0.000    2.10     0.00    0.00      0   -9.90   -9.00        9.4        9.4        9.5        9.5        9.5        9.5        9.5        9.5        9.5        9.5        9.5       11.0        0.0        0.0        0.0        0.0        0.0        0.0        0.0        0.0        0.0        0.0        0.0        0.0      4.0      14.1      20.8      27.8      34.8    391.85
    23     9  2011    85     4     222.2     0.9     12.7    0.0    0.9    0.0      0.0      0.0   -9.90      1.1      1.1    100     11.8     11.8   100     13.0    13.0     100     16.0    2.12     -9      0     -9      0      0    84.8    84.8      0     0.80     11.8     11.8     11.8   100    34.3    17.957    36.0    6.459    7.177      99        0.60    0.000    0.000     222.2    222.2    2.12   203.5     898.0     247.9     247.9     157.7     157.7      52.5    0.000     0.000     0.000     0.000     0.000    2.12     0.00    0.00      0   -9.90   -9.00        9.5        9.5        9.6        9.6        9.6        9.6        9.6        9.6        9.6        9.6        9.6       10.6        0.0        0.0        0.0        0.0        0.0        0.0        0.0        0.0        0.0        0.0        0.0        0.0      0.9      14.9      18.0      26.3      34.6    391.85
    24     9  2011    86     4     217.7     3.1      3.7    0.0    3.1    0.0      0.0      0.0   -9.90      1.2      1.2    100     10.1     10.1   100     11.3    11.3     100     17.2    2.14     -9      0     -9      0      0    82.8    82.8      0     0.76     10.1     10.1     10.1   100    34.3    18.219    37.5    6.831    7.590      99        0.63    0.000    0.000     217.7    217.7    2.14   201.5     905.6     250.0     250.0     151.8     151.8      52.9    0.000     0.000     0.000     0.000     0.000    2.14     0.00    0.00      0   -9.90   -9.00        9.4        9.4        9.4        9.4        9.4        9.4        9.4        9.4        9.4        9.4        9.4       10.1        0.0        0.0        0.0        0.0        0.0        0.0        0.0        0.0        0.0        0.0        0.0        0.0      3.1      13.3      20.4      26.9      33.4    391.85
    25     9  2011    87     4     218.3     8.4      3.7    0.0    8.4    0.0      0.0      0.0   -9.90      1.4      1.4    100     10.1     10.1   100     11.5    11.5     100     17.5    2.16     -9      0     -9      0      0    80.5    80.5      0     0.73     10.1     10.1     10.1   100    34.3    18.468    39.0    7.206    8.007      99        0.66    0.000    0.000     218.3    218.3    2.16   204.4     913.2     252.1     252.1     155.8     155.8      53.4    0.000     0.000     0.000     0.000     0.000    2.16     0.00    0.00      0   -9.90   -9.00        9.4        9.4        9.5        9.5        9.5        9.5        9.5        9.5        9.5        9.5        9.5        9.8        0.0        0.0        0.0        0.0        0.0        0.0        0.0        0.0        0.0        0.0        0.0        0.0      8.4      13.9      21.0      27.8      34.6    391.85
[...]
    10    12  2015    -9     0     219.3     4.8      0.0    0.0    4.8    0.0      0.0      0.0   -9.90     11.1      8.0     72      0.0      0.0   100     11.1     8.0      72     17.8    2.28     -9     -9     -9      0     -9     0.0     0.0      0    -9.00      0.0      0.0      0.0   100    34.5    19.973    48.2    9.622   10.691     100        0.82    0.000    0.000     219.3    219.3    2.28   217.7     965.7     266.5     266.5     146.5     162.8      56.5    0.000     0.000     0.000     0.000     0.000    2.28     0.00    0.00      0   -9.90   -9.00        7.9       11.7       10.2        9.4        9.4        9.4        9.4        9.4        9.4        9.4        9.4        9.5        0.0        0.0        0.0        0.0        0.0        0.0        0.0        0.0        0.0        0.0        0.0        0.0      4.8      10.1      21.7      27.2      32.8    401.01
    11    12  2015    -9     0     214.9     1.8      0.0    0.0    1.8    0.0      0.0      0.0   -9.90     11.6      6.2     54      0.0      0.0   100     11.6     6.2      54     17.3    2.28     -9     -9     -9      0     -9     0.0     0.0      0    -9.00      0.0      0.0      0.0   100    34.5    19.973    48.2    9.622   10.691     100        0.82    0.000    0.000     214.9    214.9    2.28   213.2     965.7     266.5     266.5     148.4     162.8      56.5    0.000     0.000     0.000     0.000     0.000    2.28     0.00    0.00      0   -9.90   -9.00        3.3       11.7       10.2        9.4        9.4        9.4        9.4        9.4        9.4        9.4        9.4        9.5        0.0        0.0        0.0        0.0        0.0        0.0        0.0        0.0        0.0        0.0        0.0        0.0      1.8      10.5      20.7      26.8      32.9    401.01
    12    12  2015    -9     0     214.9     7.7      0.0    0.0    7.7    0.0      0.0      0.0   -9.90     13.0      7.7     59      0.0      0.0   100     13.0     7.7      59     16.5    2.28     -9     -9     -9      0     -9     0.0     0.0      0    -9.00      0.0      0.0      0.0   100    34.5    19.973    48.2    9.622   10.691     100        0.82    0.000    0.000     214.9    214.9    2.28   213.2     965.7     266.5     266.5     154.9     162.8      56.5    0.000     0.000     0.000     0.000     0.000    2.28     0.00    0.00      0   -9.90   -9.00        3.3       11.7       10.2        9.4        9.4        9.4        9.4        9.4        9.4        9.4        9.4        9.5        0.0        0.0        0.0        0.0        0.0        0.0        0.0        0.0        0.0        0.0        0.0        0.0      7.7      11.8      19.0      26.8      34.6    401.01
    13    12  2015    -9     0     213.3     2.5      0.0    0.0    2.5    0.0      0.0      0.0   -9.90     12.3      4.1     34      0.0      0.0   100     12.3     4.1      34     16.9    2.28     -9     -9     -9      0     -9     0.0     0.0      0    -9.00      0.0      0.0      0.0   100    34.5    19.973    48.2    9.622   10.691     100        0.82    0.000    0.000     213.3    213.3    2.28   211.6     965.7     266.5     266.5     151.5     162.8      56.5    0.000     0.000     0.000     0.000     0.000    2.28     0.00    0.00      0   -9.90   -9.00        1.7       11.7       10.2        9.4        9.4        9.4        9.4        9.4        9.4        9.4        9.4        9.5        0.0        0.0        0.0        0.0        0.0        0.0        0.0        0.0        0.0        0.0        0.0        0.0      2.5      11.2      19.7      26.7      33.6    401.01
    14    12  2015    -9     0     215.1     9.1      0.0    0.0    9.1    0.0      0.0      0.0   -9.90     11.9      7.3     61      0.0      0.0   100     11.9     7.3      61     17.0    2.28     -9     -9     -9      0     -9     0.0     0.0      0    -9.00      0.0      0.0      0.0   100    34.5    19.973    48.2    9.622   10.691     100        0.82    0.000    0.000     215.1    215.1    2.28   213.4     965.7     266.5     266.5     150.1     162.8      56.5    0.000     0.000     0.000     0.000     0.000    2.28     0.00    0.00      0   -9.90   -9.00        3.5       11.7       10.2        9.4        9.4        9.4        9.4        9.4        9.4        9.4        9.4        9.5        0.0        0.0        0.0        0.0        0.0        0.0        0.0        0.0        0.0        0.0        0.0        0.0      9.1      10.9      20.0      26.6      33.2    401.01
    15    12  2015    -9     0     214.1     5.1      0.0    0.0    5.1    0.0      0.0      0.0   -9.90     12.6      6.1     48      0.0      0.0   100     12.6     6.1      48     17.1    2.28     -9     -9     -9      0     -9     0.0     0.0      0    -9.00      0.0      0.0      0.0   100    34.5    19.973    48.2    9.622   10.691     100        0.82    0.000    0.000     214.1    214.1    2.28   212.5     965.7     266.5     266.5     153.1     162.8      56.5    0.000     0.000     0.000     0.000     0.000    2.28     0.00    0.00      0   -9.90   -9.00        2.6       11.7       10.2        9.4        9.4        9.4        9.4        9.4        9.4        9.4        9.4        9.5        0.0        0.0        0.0        0.0        0.0        0.0        0.0        0.0        0.0        0.0        0.0        0.0      5.1      11.5      20.2      27.4      34.5    401.01
    16    12  2015    -9     0     212.7     1.4      0.0    0.0    1.4    0.0      0.0      0.0   -9.90     12.4      2.8     23      0.0      0.0   100     12.4     2.8      23     17.2    2.28     -9     -9     -9      0     -9     0.0     0.0      0    -9.00      0.0      0.0      0.0   100    34.5    19.973    48.2    9.622   10.691     100        0.82    0.000    0.000     212.7    212.7    2.28   211.1     965.7     266.5     266.5     152.0     162.8      56.5    0.000     0.000     0.000     0.000     0.000    2.28     0.00    0.00      0   -9.90   -9.00        1.2       11.7       10.2        9.4        9.4        9.4        9.4        9.4        9.4        9.4        9.4        9.5        0.0        0.0        0.0        0.0        0.0        0.0        0.0        0.0        0.0        0.0        0.0        0.0      1.4      11.2      20.3      27.2      34.1    401.01
    17    12  2015    -9     0     211.9     2.8      0.0    0.0    2.8    0.0      0.0      0.0   -9.90     12.3      3.7     30      0.0      0.0   100     12.3     3.7      30     16.3    2.28     -9     -9     -9      0     -9     0.0     0.0      0    -9.00      0.0      0.0      0.0   100    34.5    19.973    48.2    9.622   10.691     100        0.82    0.000    0.000     211.9    211.9    2.28   210.3     965.7     266.5     266.5     151.4     162.8      56.5    0.000     0.000     0.000     0.000     0.000    2.28     0.00    0.00      0   -9.90   -9.00        1.2       11.1       10.2        9.4        9.4        9.4        9.4        9.4        9.4        9.4        9.4        9.5        0.0        0.0        0.0        0.0        0.0        0.0        0.0        0.0        0.0        0.0        0.0        0.0      2.8      11.1      18.6      25.8      33.0    401.01
    18    12  2015    -9     0     212.6     5.7      0.0    0.0    5.7    0.0      0.0      0.0   -9.90     11.4      5.0     44      0.0      0.0   100     11.4     5.0      44     16.9    2.28     -9     -9     -9      0     -9     0.0     0.0      0    -9.00      0.0      0.0      0.0   100    34.5    19.973    48.2    9.622   10.691     100        0.82    0.000    0.000     212.6    212.6    2.28   210.9     965.7     266.5     266.5     147.6     162.8      56.5    0.000     0.000     0.000     0.000     0.000    2.28     0.00    0.00      0   -9.90   -9.00        1.8       11.1       10.2        9.4        9.4        9.4        9.4        9.4        9.4        9.4        9.4        9.5        0.0        0.0        0.0        0.0        0.0        0.0        0.0        0.0        0.0        0.0        0.0        0.0      5.7      10.4      19.9      26.0      32.2    401.01
    19    12  2015    -9     0     212.3     4.6      0.0    0.0    4.6    0.0      0.0      0.0   -9.90     11.3      4.9     43      0.0      0.0   100     11.3     4.9      43     17.5    2.28     -9     -9     -9      0     -9     0.0     0.0      0    -9.00      0.0      0.0      0.0   100    34.5    19.973    48.2    9.622   10.691     100        0.82    0.000    0.000     212.3    212.3    2.28   210.6     965.7     266.5     266.5     147.2     162.8      56.5    0.000     0.000     0.000     0.000     0.000    2.28     0.00    0.00      0   -9.90   -9.00        1.6       11.1       10.2        9.4        9.4        9.4        9.4        9.4        9.4        9.4        9.4        9.5        0.0        0.0        0.0        0.0        0.0        0.0        0.0        0.0        0.0        0.0        0.0        0.0      4.6      10.3      21.0      26.8      32.7    401.01
    20    12  2015    -9     0     211.4     1.2      0.0    0.0    1.2    0.0      0.0      0.0   -9.90     11.9      2.1     18      0.0      0.0   100     11.9     2.1      18     16.7    2.28     -9     -9     -9      0     -9     0.0     0.0      0    -9.00      0.0      0.0      0.0   100    34.5    19.973    48.2    9.622   10.691     100        0.82    0.000    0.000     211.4    211.4    2.28   209.7     965.7     266.5     266.5     149.7     162.8      56.5    0.000     0.000     0.000     0.000     0.000    2.28     0.00    0.00      0   -9.90   -9.00        1.2       10.8       10.2        9.4        9.4        9.4        9.4        9.4        9.4        9.4        9.4        9.5        0.0        0.0        0.0        0.0        0.0        0.0        0.0        0.0        0.0        0.0        0.0        0.0      1.2      10.8      19.4      26.1      32.7    401.01
    21    12  2015    -9     0     210.6     1.8      0.0    0.0    1.8    0.0      0.0      0.0   -9.90     12.2      2.5     21      0.0      0.0   100     12.2     2.5      21     16.5    2.28     -9     -9     -9      0     -9     0.0     0.0      0    -9.00      0.0      0.0      0.0   100    34.5    19.973    48.2    9.622   10.691     100        0.82    0.000    0.000     210.6    210.6    2.28   209.0     965.7     266.5     266.5     151.3     162.8      56.5    0.000     0.000     0.000     0.000     0.000    2.28     0.00    0.00      0   -9.90   -9.00        1.2       10.3       10.2        9.4        9.4        9.4        9.4        9.4        9.4        9.4        9.4        9.5        0.0        0.0        0.0        0.0        0.0        0.0        0.0        0.0        0.0        0.0        0.0        0.0      1.8      11.1      19.0      26.1      33.1    401.01
    22    12  2015    -9     0     216.2    13.5      0.0    0.0   13.5    0.0      0.0      0.0   -9.90     11.3      7.9     70      0.0      0.0   100     11.3     7.9      70     17.3    2.28     -9     -9     -9      0     -9     0.0     0.0      0    -9.00      0.0      0.0      0.0   100    34.5    19.973    48.2    9.622   10.691     100        0.82    0.000    0.000     216.2    216.2    2.28   214.5     965.7     266.5     266.5     147.3     162.8      56.5    0.000     0.000     0.000     0.000     0.000    2.28     0.00    0.00      0   -9.90   -9.00        6.8       10.3       10.2        9.4        9.4        9.4        9.4        9.4        9.4        9.4        9.4        9.5        0.0        0.0        0.0        0.0        0.0        0.0        0.0        0.0        0.0        0.0        0.0        0.0     13.5      10.3      20.6      26.5      32.4    401.01
    23    12  2015    -9     0     213.2     4.3      0.0    0.0    4.3    0.0      0.0      0.0   -9.90     13.1      7.2     55      0.0      0.0   100     13.1     7.2      55     17.4    2.28     -9     -9     -9      0     -9     0.0     0.0      0    -9.00      0.0      0.0      0.0   100    34.5    19.973    48.2    9.622   10.691     100        0.82    0.000    0.000     213.2    213.2    2.28   211.6     965.7     266.5     266.5     155.3     162.8      56.5    0.000     0.000     0.000     0.000     0.000    2.28     0.00    0.00      0   -9.90   -9.00        3.8       10.3       10.2        9.4        9.4        9.4        9.4        9.4        9.4        9.4        9.4        9.5        0.0        0.0        0.0        0.0        0.0        0.0        0.0        0.0        0.0        0.0        0.0        0.0      4.3      11.9      20.7      28.1      35.5    401.01
    24    12  2015    -9     0     211.6     1.4      0.0    0.0    1.4    0.0      0.0      0.0   -9.90     12.7      3.0     24      0.0      0.0   100     12.7     3.0      24     17.7    2.28     -9     -9     -9      0     -9     0.0     0.0      0    -9.00      0.0      0.0      0.0   100    34.5    19.973    48.2    9.622   10.691     100        0.82    0.000    0.000     211.6    211.6    2.28   209.9     965.7     266.5     266.5     153.2     162.8      56.5    0.000     0.000     0.000     0.000     0.000    2.28     0.00    0.00      0   -9.90   -9.00        2.2       10.3       10.2        9.4        9.4        9.4        9.4        9.4        9.4        9.4        9.4        9.5        0.0        0.0        0.0        0.0        0.0        0.0        0.0        0.0        0.0        0.0        0.0        0.0      1.4      11.5      21.3      28.2      35.1    401.01
    25    12  2015    -9     0     210.7     2.7      0.0    0.0    2.7    0.0      0.0      0.0   -9.90     12.8      3.6     28      0.0      0.0   100     12.8     3.6      28     16.7    2.28     -9     -9     -9      0     -9     0.0     0.0      0    -9.00      0.0      0.0      0.0   100    34.5    19.973    48.2    9.622   10.691     100        0.82    0.000    0.000     210.7    210.7    2.28   209.1     965.7     266.5     266.5     154.0     162.8      56.5    0.000     0.000     0.000     0.000     0.000    2.28     0.00    0.00      0   -9.90   -9.00        1.2       10.3       10.2        9.4        9.4        9.4        9.4        9.4        9.4        9.4        9.4        9.5        0.0        0.0        0.0        0.0        0.0        0.0        0.0        0.0        0.0        0.0        0.0        0.0      2.7      11.7      19.4      26.9      34.4    401.01
    26    12  2015    -9     0     210.6     4.7      0.0    0.0    4.7    0.0      0.0      0.0   -9.90     12.8      4.7     37      0.0      0.0   100     12.8     4.7      37     17.2    2.28     -9     -9     -9      0     -9     0.0     0.0      0    -9.00      0.0      0.0      0.0   100    34.5    19.973    48.2    9.622   10.691     100        0.82    0.000    0.000     210.6    210.6    2.28   209.0     965.7     266.5     266.5     154.0     162.8      56.5    0.000     0.000     0.000     0.000     0.000    2.28     0.00    0.00      0   -9.90   -9.00        1.2       10.3       10.2        9.4        9.4        9.4        9.4        9.4        9.4        9.4        9.4        9.5        0.0        0.0        0.0        0.0        0.0        0.0        0.0        0.0        0.0        0.0        0.0        0.0      4.7      11.7      20.5      27.7      34.9    401.01
    27    12  2015    -9     0     210.5     4.5      0.0    0.0    4.5    0.0      0.0      0.0   -9.90     12.1      4.6     38      0.0      0.0   100     12.1     4.6      38     16.8    2.28     -9     -9     -9      0     -9     0.0     0.0      0    -9.00      0.0      0.0      0.0   100    34.5    19.973    48.2    9.622   10.691     100        0.82    0.000    0.000     210.5    210.5    2.28   208.8     965.7     266.5     266.5     150.6     162.8      56.5    0.000     0.000     0.000     0.000     0.000    2.28     0.00    0.00      0   -9.90   -9.00        1.2       10.2       10.2        9.4        9.4        9.4        9.4        9.4        9.4        9.4        9.4        9.5        0.0        0.0        0.0        0.0        0.0        0.0        0.0        0.0        0.0        0.0        0.0        0.0      4.5      11.0      19.6      26.3      33.0    401.01
    28    12  2015    -9     0     213.1    10.0      0.0    0.0   10.0    0.0      0.0      0.0   -9.90     13.5      7.3     54      0.0      0.0   100     13.5     7.3      54     17.1    2.28     -9     -9     -9      0     -9     0.0     0.0      0    -9.00      0.0      0.0      0.0   100    34.5    19.973    48.2    9.622   10.691     100        0.82    0.000    0.000     213.1    213.1    2.28   211.4     965.7     266.5     266.5     156.9     162.8      56.5    0.000     0.000     0.000     0.000     0.000    2.28     0.00    0.00      0   -9.90   -9.00        3.8       10.2       10.2        9.4        9.4        9.4        9.4        9.4        9.4        9.4        9.4        9.5        0.0        0.0        0.0        0.0        0.0        0.0        0.0        0.0        0.0        0.0        0.0        0.0     10.0      12.3      20.3      28.1      35.9    401.01
    29    12  2015    -9     0     211.8     3.6      0.0    0.0    3.6    0.0      0.0      0.0   -9.90     12.2      4.9     41      0.0      0.0   100     12.2     4.9      41     16.8    2.28     -9     -9     -9      0     -9     0.0     0.0      0    -9.00      0.0      0.0      0.0   100    34.5    19.973    48.2    9.622   10.691     100        0.82    0.000    0.000     211.8    211.8    2.28   210.1     965.7     266.5     266.5     151.1     162.8      56.5    0.000     0.000     0.000     0.000     0.000    2.28     0.00    0.00      0   -9.90   -9.00        2.5       10.2       10.2        9.4        9.4        9.4        9.4        9.4        9.4        9.4        9.4        9.5        0.0        0.0        0.0        0.0        0.0        0.0        0.0        0.0        0.0        0.0        0.0        0.0      3.6      11.1      19.6      26.4      33.2    401.01
    30    12  2015    -9     0     210.7     1.1      0.0    0.0    1.1    0.0      0.0      0.0   -9.90     13.2      2.3     17      0.0      0.0   100     13.2     2.3      17     17.4    2.28     -9     -9     -9      0     -9     0.0     0.0      0    -9.00      0.0      0.0      0.0   100    34.5    19.973    48.2    9.622   10.691     100        0.82    0.000    0.000     210.7    210.7    2.28   209.0     965.7     266.5     266.5     155.5     162.8      56.5    0.000     0.000     0.000     0.000     0.000    2.28     0.00    0.00      0   -9.90   -9.00        1.3       10.2       10.2        9.4        9.4        9.4        9.4        9.4        9.4        9.4        9.4        9.5        0.0        0.0        0.0        0.0        0.0        0.0        0.0        0.0        0.0        0.0        0.0        0.0      1.1      12.0      20.8      28.1      35.5    401.01
    31    12  2015    -9     0     209.9     2.1      0.0    0.0    2.1    0.0      0.0      0.0   -9.90     12.6      2.8     23      0.0      0.0   100     12.6     2.8      23     17.0    2.28     -9     -9     -9      0     -9     0.0     0.0      0    -9.00      0.0      0.0      0.0   100    34.5    19.973    48.2    9.622   10.691     100        0.82    0.000    0.000     209.9    209.9    2.28   208.3     965.7     266.5     266.5     152.9     162.8      56.5    0.000     0.000     0.000     0.000     0.000    2.28     0.00    0.00      0   -9.90   -9.00        1.2        9.8       10.2        9.4        9.4        9.4        9.4        9.4        9.4        9.4        9.4        9.5        0.0        0.0        0.0        0.0        0.0        0.0        0.0        0.0        0.0        0.0        0.0        0.0      2.1      11.4      20.0      27.0      34.1    401.01
