AquaCrop 7.1 (August 2023) - Output created on (date) : 16-01-2026   at (time) : 12:17:09

    RunNr     Day1   Month1    Year1     Rain      ETo       GD     CO2      Irri   Infilt   Runoff    Drain   Upflow        E     E/Ex       Tr      TrW   Tr/Trx    SaltIn   SaltOut    SaltUp  SaltProf     Cycle   SaltStr  FertStr  WeedStr  TempStr   ExpStr   StoStr  BioMass  Brelative   HI    Y(dry)  Y(fresh)    WPet      Bin     Bout     DayN   MonthN    YearN
                                           mm       mm  degC.day    ppm        mm       mm       mm       mm       mm       mm        %       mm       mm        %    ton/ha    ton/ha    ton/ha    ton/ha      days       %        %        %        %        %        %    ton/ha        %       %    ton/ha   ton/ha    kg/m3   ton/ha   ton/ha
   Tot(1)        1        7     2011   1056.6   2401.4   3128.9   391.85    600.0   1053.1      3.6      0.0      0.0    877.9       52    830.3    830.3      100     0.000     0.000     0.000     0.000       89        0       30        0        0        1        0    19.766       99     48.1    9.516   10.574     0.80    0.000    0.000       31       12     2011  cluster_201.PRM
   Tot(2)        1        7     2012   1167.8   2369.6   3129.6   394.06    510.2   1163.0      4.8      0.0      0.0    904.3       54    822.3    822.3      100     0.000     0.000     0.000     0.000       89        0       30        0        0        0        0    19.928      100     48.2    9.601   10.667     0.83    0.000    0.000       31       12     2012  cluster_201.PRM
   Tot(3)        1        7     2013   1056.4   2386.7   3135.9   396.74    572.3   1054.1      2.3      0.0      0.0    841.2       50    829.7    829.7      100     0.000     0.000     0.000     0.000       89        0       30        0        0        1        0    19.909       99     48.2    9.591   10.657     0.81    0.000    0.000       31       12     2013  cluster_201.PRM
   Tot(4)        1        7     2014   1131.2   2389.6   3132.3   398.81    517.6   1127.7      3.5      1.3      0.0    877.2       52    815.0    815.0      100     0.000     0.000     0.000     0.000       89        0       30        0        0        1        0    19.733       98     48.2    9.506   10.563     0.81    0.000    0.000       31       12     2014  cluster_201.PRM
   Tot(5)        1        7     2015   1162.4   2397.2   3135.3   401.01    535.5   1156.5      5.9      0.0      0.0    906.7       54    830.7    830.7      100     0.000     0.000     0.000     0.000       89        0       30        0        0        1        0    19.980      100     48.2    9.626   10.695     0.82    0.000    0.000       31       12     2015  cluster_201.PRM
