AquaCrop 7.1 (August 2023) - Output created on (date) : 16-01-2026   at (time) : 12:17:09

   Run:   1
   Day Month  Year   DAP Stage   WC(2.30)   Rain     Irri   Surf   Infilt   RO    Drain       CR    Zgwt       Ex       E     E/Ex     Trx       Tr  Tr/Trx    ETx      ET  ET/ETx      GD       Z     StExp  StSto  StSen StSalt StWeed   CC      CCw     StTr  Kc(Tr)     Trx       Tr      TrW  Tr/Trx   WP    Biomass     HI    Y(dry)  Y(fresh)  Brelative    WPet      Bin     Bout  WC(2.30) Wr(2.30)     Z       Wr    Wr(SAT)    Wr(FC)   Wr(exp)   Wr(sto)   Wr(sen)   Wr(PWP)    SaltIn    SaltOut   SaltUp   Salt(2.30)  SaltZ     Z       ECe    ECsw   StSalt  Zgwt    ECgw       WC01       WC 2       WC 3       WC 4       WC 5       WC 6       WC 7       WC 8       WC 9       WC10       WC11       WC12      ECe01      ECe 2      ECe 3      ECe 4      ECe 5      ECe 6      ECe 7      ECe 8      ECe 9      ECe10      ECe11      ECe12     Rain       ETo      Tmin      Tavg      Tmax      CO2
                                      mm      mm       mm     mm     mm     mm       mm       mm      m        mm       mm     %        mm       mm    %        mm      mm       %  degC-day     m       %      %      %      %      %      %       %       %       -        mm       mm       mm    %     g/m2    ton/ha      %    ton/ha   ton/ha       %       kg/m3   ton/ha   ton/ha      mm       mm       m       mm        mm        mm        mm        mm        mm         mm    ton/ha    ton/ha    ton/ha    ton/ha    ton/ha     m      dS/m    dS/m      %     m      dS/m       0.05       0.18       0.33       0.48       0.63       0.80       1.00       1.20       1.43       1.68       1.93       2.18       0.05       0.18       0.33       0.48       0.63       0.80       1.00       1.20       1.43       1.68       1.93       2.18       mm        mm     degC      degC      degC       ppm
     1     7  2011     1     1     266.1     7.9      0.0    0.0    7.9    0.1      0.0      0.0   -9.90     16.9     10.3     61      0.0      0.0   100     16.9    10.3      61     17.6    0.30     -9     -9     -9      0     -9     0.0     0.0      0    -9.00      0.0      0.0      0.0   100     0.0     0.000    -9.9    0.000    0.000      -9        0.00    0.000    0.000     266.1    266.1    0.30    32.1     125.1      34.6      30.7      22.1      15.5       6.9    0.000     0.000     0.000     0.000     0.000    0.30     0.00    0.00      0   -9.90   -9.00        9.2       11.7       11.7       11.7       11.7       11.7       11.7       11.7       11.7       11.7       11.7       11.7        0.0        0.0        0.0        0.0        0.0        0.0        0.0        0.0        0.0        0.0        0.0        0.0      7.9      15.4      21.1      28.2      35.3    391.85
     2     7  2011     2     1     260.7     3.2      0.0    0.0    3.2    0.0      0.0      0.0   -9.90     16.9      8.6     51      0.0      0.0   100     16.9     8.6      51     17.0    0.30     -9     -9     -9      0     -9     0.0     0.0      0    -9.00      0.0      0.0      0.0   100     0.0     0.000    -9.9    0.000    0.000      -9        0.00    0.000    0.000     260.7    260.7    0.30    26.7     125.1      34.6      30.7      22.1      15.5       6.9    0.000     0.000     0.000     0.000     0.000    0.30     0.00    0.00      0   -9.90   -9.00        3.7       11.7       11.7       11.7       11.7       11.7       11.7       11.7       11.7       11.7       11.7       11.7        0.0        0.0        0.0        0.0        0.0        0.0        0.0        0.0        0.0        0.0        0.0        0.0      3.2      15.3      20.0      27.3      34.6    391.85
     3     7  2011     3     1     259.6     7.5      0.0    0.0    7.5    0.0      0.0      0.0   -9.90     17.2      8.6     50      0.0      0.0   100     17.2     8.6      50     16.5    0.30     -9     -9     -9      0     -9     0.0     0.0      0    -9.00      0.0      0.0      0.0   100     0.0     0.000    -9.9    0.000    0.000      -9        0.00    0.000    0.000     259.6    259.6    0.30    25.6     125.1      34.6      30.7      22.3      15.5       6.9    0.000     0.000     0.000     0.000     0.000    0.30     0.00    0.00      0   -9.90   -9.00        2.5       11.7       11.7       11.7       11.7       11.7       11.7       11.7       11.7       11.7       11.7       11.7        0.0        0.0        0.0        0.0        0.0        0.0        0.0        0.0        0.0        0.0        0.0        0.0      7.5      15.7      19.0      26.8      34.6    391.85
     4     7  2011     4     1     257.9     3.0      0.0    0.0    3.0    0.0      0.0      0.0   -9.90     17.0      4.6     27      0.0      0.0   100     17.0     4.6      27     17.1    0.30     -9     -9     -9      0     -9     0.0     0.0      0    -9.00      0.0      0.0      0.0   100     0.0     0.000    -9.9    0.000    0.000      -9        0.00    0.000    0.000     257.9    257.9    0.30    23.9     125.1      34.6      30.7      22.2      15.5       6.9    0.000     0.000     0.000     0.000     0.000    0.30     0.00    0.00      0   -9.90   -9.00        1.2       11.5       11.7       11.7       11.7       11.7       11.7       11.7       11.7       11.7       11.7       11.7        0.0        0.0        0.0        0.0        0.0        0.0        0.0        0.0        0.0        0.0        0.0        0.0      3.0      15.5      20.2      27.6      34.9    391.85
     5     7  2011     5     1     259.9    11.0      0.0    0.0   11.0    0.0      0.0      0.0   -9.90     16.9      9.1     54      0.0      0.0   100     16.9     9.1      54     17.8    0.32     -9     -9     -9      0     -9     0.0     0.0      0    -9.00      0.0      0.0      0.0   100     0.0     0.000    -9.9    0.000    0.000      -9        0.00    0.000    0.000     259.9    259.9    0.32    28.2     133.5      36.9      32.8      23.6      16.5       7.4    0.000     0.000     0.000     0.000     0.000    0.32     0.00    0.00      0   -9.90   -9.00        3.1       11.5       11.7       11.7       11.7       11.7       11.7       11.7       11.7       11.7       11.7       11.7        0.0        0.0        0.0        0.0        0.0        0.0        0.0        0.0        0.0        0.0        0.0        0.0     11.0      15.4      21.7      28.6      35.6    391.85
     6     7  2011     6     1     260.4     8.8      0.0    0.0    8.8    0.0      0.0      0.0   -9.90     14.1      8.3     59      0.0      0.0   100     14.1     8.3      59     17.5    0.36     -9     -9     -9      0     -9     0.0     0.0      0    -9.00      0.0      0.0      0.0   100     0.0     0.000    -9.9    0.000    0.000      -9        0.00    0.000    0.000     260.4    260.4    0.36    33.4     150.6      41.6      37.0      24.7      18.7       8.4    0.000     0.000     0.000     0.000     0.000    0.36     0.00    0.00      0   -9.90   -9.00        3.7       11.5       11.7       11.7       11.7       11.7       11.7       11.7       11.7       11.7       11.7       11.7        0.0        0.0        0.0        0.0        0.0        0.0        0.0        0.0        0.0        0.0        0.0        0.0      8.8      12.8      21.1      26.4      31.7    391.85
     7     7  2011     7     2     259.7     5.2      0.7    0.0    5.2    0.0      0.0      0.0   -9.90     15.1      6.5     43      0.1      0.1   100     15.2     6.6      44     17.0    0.40     -9      0      0      0      0     0.4     0.4      0     0.01      0.1      0.1      0.1   100    34.3     0.003    -9.9    0.000    0.000     100        0.00    0.000    0.000     259.7    259.7    0.40    37.1     166.4      46.0      46.0      28.2      28.2       9.3    0.000     0.000     0.000     0.000     0.000    0.40     0.00    0.00      0   -9.90   -9.00        9.4        9.4        9.5       11.7       11.7       11.7       11.7       11.7       11.7       11.7       11.7       11.7        0.0        0.0        0.0        0.0        0.0        0.0        0.0        0.0        0.0        0.0        0.0        0.0      5.2      13.8      20.1      26.3      32.5    391.85
     8     7  2011     8     2     259.9     0.6      6.1    0.0    0.6    0.0      0.0      0.0   -9.90     17.4      6.4     37      0.1      0.1   100     17.5     6.5      37     16.8    0.43     -9      0      0      0      0     0.5     0.5      0     0.01      0.1      0.1      0.1   100    34.3     0.006    -9.9    0.000    0.000     100        0.00    0.000    0.000     259.9    259.9    0.43    41.9     181.2      50.1      50.1      32.7      32.7      10.2    0.000     0.000     0.000     0.000     0.000    0.43     0.00    0.00      0   -9.90   -9.00        9.6        9.6        9.7       11.3       11.7       11.7       11.7       11.7       11.7       11.7       11.7       11.7        0.0        0.0        0.0        0.0        0.0        0.0        0.0        0.0        0.0        0.0        0.0        0.0      0.6      15.9      19.7      27.5      35.4    391.85
     9     7  2011     9     2     258.4     2.6      3.9    0.0    2.6    0.0      0.0      0.0   -9.90     16.3      7.9     48      0.2      0.2   100     16.5     8.0      49     16.6    0.47      0      0      0      0      0     0.6     0.6      0     0.01      0.2      0.2      0.2   100    34.3     0.010    -9.9    0.000    0.000     100        0.00    0.000    0.000     258.4    258.4    0.47    44.8     195.4      54.0      54.0      34.3      34.3      11.0    0.000     0.000     0.000     0.000     0.000    0.47     0.00    0.00      0   -9.90   -9.00        9.5        9.5        9.6       10.5       11.7       11.7       11.7       11.7       11.7       11.7       11.7       11.7        0.0        0.0        0.0        0.0        0.0        0.0        0.0        0.0        0.0        0.0        0.0        0.0      2.6      15.0      19.2      26.5      33.8    391.85
    10     7  2011    10     2     258.2     6.9      2.9    0.0    6.9    0.0      0.0      0.0   -9.90     17.9      9.7     54      0.2      0.2   100     18.1    10.0      55     16.4    0.50      0      0      0      0      0     0.7     0.7      0     0.01      0.2      0.2      0.2   100    34.3     0.014    -9.9    0.000    0.000     100        0.00    0.000    0.000     258.2    258.2    0.50    48.3     209.1      57.8      57.8      38.3      38.3      11.9    0.000     0.000     0.000     0.000     0.000    0.50     0.00    0.00      0   -9.90   -9.00        9.7        9.7        9.7       10.0       11.7       11.7       11.7       11.7       11.7       11.7       11.7       11.7        0.0        0.0        0.0        0.0        0.0        0.0        0.0        0.0        0.0        0.0        0.0        0.0      6.9      16.5      18.7      27.2      35.7    391.85
    11     7  2011    11     2     256.2     5.3      1.7    0.0    5.3    0.0      0.0      0.0   -9.90     14.6      8.8     60      0.2      0.2   100     14.8     9.0      61     17.7    0.53      0      0      0      0      0     0.8     0.8      0     0.02      0.2      0.2      0.2   100    34.3     0.019    -9.9    0.000    0.000     100        0.00    0.000    0.000     256.2    256.2    0.53    49.5     222.3      61.4      61.4      37.3      37.3      12.6    0.000     0.000     0.000     0.000     0.000    0.53     0.00    0.00      0   -9.90   -9.00        9.4        9.4        9.4        9.5       11.7       11.7       11.7       11.7       11.7       11.7       11.7       11.7        0.0        0.0        0.0        0.0        0.0        0.0        0.0        0.0        0.0        0.0        0.0        0.0      5.3      13.5      21.4      27.1      32.8    391.85
    12     7  2011    12     2     257.8     6.5      5.3    0.0    6.5    0.0      0.0      0.0   -9.90     18.1      9.9     54      0.3      0.3   100     18.4    10.2      55     16.9    0.56      0      0      0      0      0     1.0     1.0      0     0.02      0.3      0.3      0.3   100    34.3     0.025    -9.9    0.000    0.000     100        0.00    0.000    0.000     257.8    257.8    0.56    54.3     235.2      65.0      65.0      43.4      43.4      13.4    0.000     0.000     0.000     0.000     0.000    0.56     0.00    0.00      0   -9.90   -9.00        9.7        9.7        9.8        9.8       11.6       11.7       11.7       11.7       11.7       11.7       11.7       11.7        0.0        0.0        0.0        0.0        0.0        0.0        0.0        0.0        0.0        0.0        0.0        0.0      6.5      16.7      19.8      28.2      36.6    391.85
    13     7  2011    13     2     256.3     1.5      4.5    0.0    1.5    0.0      0.0      0.0   -9.90     16.8      7.1     43      0.3      0.3   100     17.1     7.5      44     17.0    0.59      2      0      0      0      0     1.2     1.2      0     0.02      0.3      0.3      0.3   100    34.3     0.032    -9.9    0.000    0.000     100        0.00    0.000    0.000     256.3    256.3    0.59    56.9     247.7      68.4      68.4      44.2      44.2      14.1    0.000     0.000     0.000     0.000     0.000    0.59     0.00    0.00      0   -9.90   -9.00        9.6        9.6        9.6        9.6       11.1       11.7       11.7       11.7       11.7       11.7       11.7       11.7        0.0        0.0        0.0        0.0        0.0        0.0        0.0        0.0        0.0        0.0        0.0        0.0      1.5      15.6      20.0      27.5      35.0    391.85
    14     7  2011    14     2     255.7     8.1      1.7    0.0    8.1    0.0      0.0      0.0   -9.90     17.2     10.0     58      0.4      0.4   100     17.6    10.4      59     16.9    0.62      0      0      0      0      0     1.4     1.4      0     0.02      0.4      0.4      0.4   100    34.3     0.041    -9.9    0.000    0.000     100        0.00    0.000    0.000     255.7    255.7    0.62    59.9     259.9      71.8      71.8      47.0      47.0      14.8    0.000     0.000     0.000     0.000     0.000    0.62     0.00    0.00      0   -9.90   -9.00        9.7        9.7        9.7        9.7       10.5       11.7       11.7       11.7       11.7       11.7       11.7       11.7        0.0        0.0        0.0        0.0        0.0        0.0        0.0        0.0        0.0        0.0        0.0        0.0      8.1      16.0      19.9      27.7      35.6    391.85
    15     7  2011    15     2     256.4    10.8      0.0    0.0   10.8    0.0      0.0      0.0   -9.90     14.9      9.7     65      0.4      0.4   100     15.3    10.1      66     17.2    0.65      0      0      0      0      0     1.6     1.6      0     0.03      0.4      0.4      0.4   100    34.3     0.051    -9.9    0.000    0.000     100        0.00    0.000    0.000     256.4    256.4    0.65    63.6     271.9      75.1      75.1      46.3      46.3      15.6    0.000     0.000     0.000     0.000     0.000    0.65     0.00    0.00      0   -9.90   -9.00       10.4        9.7        9.7        9.7       10.5       11.7       11.7       11.7       11.7       11.7       11.7       11.7        0.0        0.0        0.0        0.0        0.0        0.0        0.0        0.0        0.0        0.0        0.0        0.0     10.8      13.9      20.4      26.6      32.8    391.85
    16     7  2011    16     2     254.8     7.0      1.7    0.0    7.0    0.0      0.0      0.0   -9.90     17.1      9.7     57      0.5      0.5   100     17.7    10.3      58     17.1    0.67      0      0      0      0      0     1.9     1.9      0     0.03      0.5      0.5      0.5   100    34.3     0.062    -9.9    0.000    0.000     100        0.00    0.000    0.000     254.8    254.8    0.67    65.0     283.6      78.3      78.3      51.4      51.4      16.2    0.000     0.000     0.000     0.000     0.000    0.67     0.00    0.00      0   -9.90   -9.00        9.7        9.7        9.7        9.7        9.8       11.7       11.7       11.7       11.7       11.7       11.7       11.7        0.0        0.0        0.0        0.0        0.0        0.0        0.0        0.0        0.0        0.0        0.0        0.0      7.0      16.1      20.1      28.0      35.8    391.85
    17     7  2011    17     2     254.2     1.7      5.5    0.0    1.7    0.0      0.0      0.0   -9.90     16.5      7.2     44      0.6      0.6   100     17.1     7.8      46     16.6    0.70      1      0      0      0      0     2.3     2.3      0     0.04      0.6      0.6      0.6   100    34.3     0.076    -9.9    0.000    0.000     100        0.00    0.000    0.000     254.2    254.2    0.70    67.2     295.2      81.5      81.5      52.8      52.8      16.9    0.000     0.000     0.000     0.000     0.000    0.70     0.00    0.00      0   -9.90   -9.00        9.6        9.6        9.7        9.7        9.7       11.7       11.7       11.7       11.7       11.7       11.7       11.7        0.0        0.0        0.0        0.0        0.0        0.0        0.0        0.0        0.0        0.0        0.0        0.0      1.7      15.6      19.2      26.9      34.6    391.85
    18     7  2011    18     2     252.5     6.0      2.0    0.0    6.0    0.0      0.0      0.0   -9.90     14.9      9.0     61      0.7      0.7   100     15.5     9.7      62     17.7    0.73      0      0      0      0      0     2.7     2.7      0     0.05      0.7      0.7      0.7   100    34.3     0.092    -9.9    0.000    0.000     100        0.00    0.000    0.000     252.5    252.5    0.73    69.1     306.5      84.6      84.6      52.6      52.6      17.6    0.000     0.000     0.000     0.000     0.000    0.73     0.00    0.00      0   -9.90   -9.00        9.5        9.5        9.5        9.5        9.5       11.4       11.7       11.7       11.7       11.7       11.7       11.7        0.0        0.0        0.0        0.0        0.0        0.0        0.0        0.0        0.0        0.0        0.0        0.0      6.0      14.1      21.3      27.5      33.7    391.85
    19     7  2011    19     2     255.1    14.4      0.0    0.0   14.3    0.2      0.0      0.0   -9.90     16.8     10.8     64      0.9      0.9   100     17.7    11.7      66     16.2    0.75      0      0      0      0      0     3.1     3.1      0     0.06      0.9      0.9      0.9   100    34.3     0.111    -9.9    0.000    0.000     100        0.00    0.000    0.000     255.1    255.1    0.75    74.7     317.7      87.7      87.7      57.7      57.7      18.3    0.000     0.000     0.000     0.000     0.000    0.75     0.00    0.00      0   -9.90   -9.00       12.1        9.5        9.5        9.5        9.5       11.4       11.7       11.7       11.7       11.7       11.7       11.7        0.0        0.0        0.0        0.0        0.0        0.0        0.0        0.0        0.0        0.0        0.0        0.0     14.4      16.1      18.4      26.8      35.1    391.85
    20     7  2011    20     2     255.2    11.3      0.0    0.0   11.0    0.2      0.0      0.0   -9.90     15.1      9.9     66      1.0      1.0   100     16.1    10.9      68     16.3    0.78      0      0      0      0      0     3.7     3.7      0     0.07      1.0      1.0      1.0   100    34.3     0.134    -9.9    0.000    0.000     100        0.00    0.000    0.000     255.2    255.2    0.78    77.8     328.7      90.8      90.8      57.2      57.2      18.9    0.000     0.000     0.000     0.000     0.000    0.78     0.00    0.00      0   -9.90   -9.00       11.9        9.7        9.5        9.5        9.5       11.4       11.7       11.7       11.7       11.7       11.7       11.7        0.0        0.0        0.0        0.0        0.0        0.0        0.0        0.0        0.0        0.0        0.0        0.0     11.3      14.7      18.6      25.8      33.0    391.85
    21     7  2011    21     2     250.9     5.0      1.0    0.0    5.0    0.0      0.0      0.0   -9.90     14.8      9.3     63      1.1      1.1   100     15.9    10.4      65     17.2    0.81      0      0      0      0      0     4.4     4.4      0     0.08      1.1      1.1      1.1   100    34.3     0.160    -9.9    0.000    0.000     100        0.00    0.000    0.000     250.9    250.9    0.81    77.3     339.6      93.8      93.8      58.9      58.9      19.5    0.000     0.000     0.000     0.000     0.000    0.81     0.00    0.00      0   -9.90   -9.00        9.5        9.5        9.5        9.5        9.5       10.4       11.7       11.7       11.7       11.7       11.7       11.7        0.0        0.0        0.0        0.0        0.0        0.0        0.0        0.0        0.0        0.0        0.0        0.0      5.0      14.5      20.5      27.1      33.8    391.85
    22     7  2011    22     2     250.2     4.9      4.8    0.0    4.9    0.0      0.0      0.0   -9.90     15.1      9.0     59      1.4      1.4   100     16.5    10.4      63     16.9    0.83      0      0      0      0      0     5.2     5.2      0     0.09      1.4      1.4      1.4   100    34.3     0.191    -9.9    0.000    0.000     100        0.00    0.000    0.000     250.2    250.2    0.83    79.6     350.3      96.7      96.7      61.7      61.7      20.2    0.000     0.000     0.000     0.000     0.000    0.83     0.00    0.00      0   -9.90   -9.00        9.6        9.6        9.6        9.6        9.6        9.9       11.7       11.7       11.7       11.7       11.7       11.7        0.0        0.0        0.0        0.0        0.0        0.0        0.0        0.0        0.0        0.0        0.0        0.0      4.9      15.1      19.7      26.9      34.1    391.85
    23     7  2011    23     2     249.4     9.8      0.6    0.0    9.8    0.0      0.0      0.0   -9.90     14.5      9.6     66      1.6      1.6   100     16.1    11.1      69     17.3    0.86      0      0      0      0      0     6.1     6.1      0     0.11      1.6      1.6      1.6   100    34.3     0.227    -9.9    0.000    0.000     100        0.00    0.000    0.000     249.4    249.4    0.86    81.4     360.9      99.7      99.7      63.0      63.0      20.8    0.000     0.000     0.000     0.000     0.000    0.86     0.00    0.00      0   -9.90   -9.00        9.5        9.5        9.6        9.6        9.6        9.6       11.7       11.7       11.7       11.7       11.7       11.7        0.0        0.0        0.0        0.0        0.0        0.0        0.0        0.0        0.0        0.0        0.0        0.0      9.8      14.7      20.7      27.4      34.2    391.85
    24     7  2011    24     2     249.6     3.2      6.6    0.0    3.2    0.0      0.0      0.0   -9.90     14.5      7.9     54      1.8      1.8   100     16.4     9.7      59     17.2    0.88      0      0      0      0      0     7.2     7.2      0     0.12      1.8      1.8      1.8   100    34.3     0.269    -9.9    0.000    0.000     100        0.00    0.000    0.000     249.6    249.6    0.88    83.9     371.4     102.5     102.5      65.3      65.3      21.4    0.000     0.000     0.000     0.000     0.000    0.88     0.00    0.00      0   -9.90   -9.00        9.5        9.5        9.6        9.6        9.6        9.6       11.7       11.7       11.7       11.7       11.7       11.7        0.0        0.0        0.0        0.0        0.0        0.0        0.0        0.0        0.0        0.0        0.0        0.0      3.2      15.0      20.5      27.5      34.4    391.85
    25     7  2011    25     2     249.1     5.3      5.1    0.0    5.3    0.0      0.0      0.0   -9.90     13.8      8.7     63      2.1      2.1   100     16.0    10.8      68     16.8    0.91      0      0      0      0      0     8.5     8.5      0     0.14      2.1      2.1      2.1   100    34.3     0.319    -9.9    0.000    0.000     100        0.00    0.000    0.000     249.1    249.1    0.91    86.0     381.7     105.4     105.4      66.4      66.4      22.0    0.000     0.000     0.000     0.000     0.000    0.91     0.00    0.00      0   -9.90   -9.00        9.5        9.5        9.5        9.5        9.5        9.5       11.6       11.7       11.7       11.7       11.7       11.7        0.0        0.0        0.0        0.0        0.0        0.0        0.0        0.0        0.0        0.0        0.0        0.0      5.3      14.6      19.5      26.5      33.4    391.85
    26     7  2011    26     2     247.2     7.0      1.6    0.0    7.0    0.0      0.0      0.0   -9.90     12.2      8.3     68      2.2      2.2   100     14.5    10.6      73     16.6    0.93      0      0      0      0      0    10.0    10.0      0     0.17      2.2      2.2      2.2   100    34.3     0.377    -9.9    0.000    0.000     100        0.00    0.000    0.000     247.2    247.2    0.93    87.5     392.0     108.2     108.2      65.6      65.6      22.6    0.000     0.000     0.000     0.000     0.000    0.93     0.00    0.00      0   -9.90   -9.00        9.4        9.4        9.4        9.4        9.4        9.4       11.3       11.7       11.7       11.7       11.7       11.7        0.0        0.0        0.0        0.0        0.0        0.0        0.0        0.0        0.0        0.0        0.0        0.0      7.0      13.3      19.3      25.3      31.4    391.85
    27     7  2011    27     2     247.4     4.7      6.5    0.0    4.7    0.0      0.0      0.0   -9.90     12.9      8.2     63      2.9      2.9   100     15.8    11.0      70     16.4    0.95      0      0      0      0      0    11.8    11.8      0     0.20      2.9      2.9      2.9   100    34.3     0.444    -9.9    0.000    0.000     100        0.00    0.000    0.000     247.4    247.4    0.95    91.1     402.2     111.0     111.0      69.8      69.8      23.2    0.000     0.000     0.000     0.000     0.000    0.95     0.00    0.00      0   -9.90   -9.00        9.5        9.5        9.5        9.5        9.5        9.5       10.8       11.7       11.7       11.7       11.7       11.7        0.0        0.0        0.0        0.0        0.0        0.0        0.0        0.0        0.0        0.0        0.0        0.0      4.7      14.5      18.9      25.9      32.9    391.85
    28     7  2011    28     2     246.4     7.3      3.7    0.0    7.3    0.0      0.0      0.0   -9.90     12.5      8.6     69      3.3      3.3   100     15.8    11.9      75     17.4    0.98      0      0      0      0      0    13.9    13.9      0     0.23      3.3      3.3      3.3   100    34.3     0.523    -9.9    0.000    0.000     100        0.00    0.000    0.000     246.4    246.4    0.98    93.3     412.2     113.8     113.8      71.6      71.6      23.8    0.000     0.000     0.000     0.000     0.000    0.98     0.00    0.00      0   -9.90   -9.00        9.5        9.5        9.5        9.5        9.5        9.5       10.3       11.7       11.7       11.7       11.7       11.7        0.0        0.0        0.0        0.0        0.0        0.0        0.0        0.0        0.0        0.0        0.0        0.0      7.3      14.6      20.9      27.5      34.1    391.85
    29     7  2011    29     2     245.9     3.0      7.6    0.0    3.0    0.0      0.0      0.0   -9.90     12.1      7.1     59      4.0      4.0   100     16.1    11.1      69     17.0    1.00      0      0      0      0      0    16.4    16.4      0     0.27      4.0      4.0      4.0   100    34.3     0.615    -9.9    0.000    0.000     100        0.00    0.000    0.000     245.9    245.9    1.00    95.6     422.2     116.6     116.6      73.9      73.9      24.4    0.000     0.000     0.000     0.000     0.000    1.00     0.00    0.00      0   -9.90   -9.00        9.5        9.5        9.6        9.6        9.6        9.6       10.0       11.7       11.7       11.7       11.7       11.7        0.0        0.0        0.0        0.0        0.0        0.0        0.0        0.0        0.0        0.0        0.0        0.0      3.0      14.8      19.9      27.0      34.0    391.85
    30     7  2011    30     2     245.5     8.5      4.0    0.0    8.5    0.0      0.0      0.0   -9.90     11.5      8.3     72      4.6      4.6   100     16.1    12.9      80     17.0    1.02      0      0      0      0      0    19.3    19.3      0     0.31      4.6      4.6      4.6   100    34.3     0.721    -9.9    0.000    0.000     100        0.00    0.000    0.000     245.5    245.5    1.02    97.7     432.0     119.3     119.3      75.8      75.8      25.0    0.000     0.000     0.000     0.000     0.000    1.02     0.00    0.00      0   -9.90   -9.00        9.5        9.5        9.6        9.6        9.6        9.6        9.7       11.7       11.7       11.7       11.7       11.7        0.0        0.0        0.0        0.0        0.0        0.0        0.0        0.0        0.0        0.0        0.0        0.0      8.5      14.9      19.9      27.0      34.1    391.85
    31     7  2011    31     2     245.2     4.7      7.9    0.0    4.7    0.0      0.0      0.0   -9.90     10.7      7.6     72      5.3      5.3   100     15.9    12.9      81     17.9    1.05      0      0      0      0      0    22.8    22.8      0     0.36      5.3      5.3      5.3   100    34.3     0.844    -9.9    0.000    0.000     100        0.00    0.000    0.000     245.2    245.2    1.05    99.7     441.8     122.0     122.0      77.2      77.2      25.6    0.000     0.000     0.000     0.000     0.000    1.05     0.00    0.00      0   -9.90   -9.00        9.5        9.5        9.6        9.6        9.6        9.6        9.6       11.7       11.7       11.7       11.7       11.7        0.0        0.0        0.0        0.0        0.0        0.0        0.0        0.0        0.0        0.0        0.0        0.0      4.7      14.8      21.8      28.4      34.9    391.85
     1     8  2011    32     2     245.8     5.0      9.4    0.0    5.0    0.0      0.0      0.0   -9.90     10.2      7.4     72      6.3      6.3   100     16.6    13.8      83     17.0    1.07      0      0      0      0      0    26.9    26.9      0     0.41      6.3      6.3      6.3   100    34.3     0.986    -9.9    0.000    0.000     100        0.00    0.000    0.000     245.8    245.8    1.07   102.5     451.5     124.7     124.7      80.4      80.4      26.1    0.000     0.000     0.000     0.000     0.000    1.07     0.00    0.00      0   -9.90   -9.00        9.6        9.6        9.6        9.6        9.6        9.6        9.6       11.7       11.7       11.7       11.7       11.7        0.0        0.0        0.0        0.0        0.0        0.0        0.0        0.0        0.0        0.0        0.0        0.0      5.0      15.4      19.9      27.4      34.8    391.85
     2     8  2011    33     2     244.5     0.6      9.4    0.0    0.6    0.0      0.0      0.0   -9.90      8.7      4.5     52      6.7      6.7   100     15.3    11.2      73     17.4    1.09      9      0      0      0      0    31.2    31.2      0     0.47      6.7      6.7      6.7   100    34.3     1.146    -9.9    0.000    0.000      99        0.00    0.000    0.000     244.5    244.5    1.09   103.4     461.2     127.3     127.3      79.5      79.5      26.7    0.000     0.000     0.000     0.000     0.000    1.09     0.00    0.00      0   -9.90   -9.00        9.5        9.5        9.5        9.5        9.5        9.5        9.5       11.7       11.7       11.7       11.7       11.7        0.0        0.0        0.0        0.0        0.0        0.0        0.0        0.0        0.0        0.0        0.0        0.0      0.6      14.3      20.8      27.2      33.7    391.85
     3     8  2011    34     2     243.9     1.6     10.3    0.0    1.6    0.0      0.0      0.0   -9.90      7.6      5.1     67      7.5      7.5   100     15.0    12.6      84     17.4    1.12      2      0      0      0      0    36.7    36.7      0     0.53      7.5      7.5      7.5   100    34.3     1.329    -9.9    0.000    0.000      99        0.00    0.000    0.000     243.9    243.9    1.12   105.6     470.7     130.0     130.0      80.6      80.6      27.3    0.000     0.000     0.000     0.000     0.000    1.12     0.00    0.00      0   -9.90   -9.00        9.4        9.4        9.5        9.5        9.5        9.5        9.5       11.5       11.7       11.7       11.7       11.7        0.0        0.0        0.0        0.0        0.0        0.0        0.0        0.0        0.0        0.0        0.0        0.0      1.6      14.1      20.9      27.1      33.4    391.85
     4     8  2011    35     2     242.6     3.7      8.8    0.0    3.7    0.0      0.0      0.0   -9.90      6.3      5.6     90      8.2      8.2   100     14.5    13.9      96     17.6    1.14      0      0      0      0      0    43.3    43.3      0     0.61      8.2      8.2      8.2   100    34.3     1.537    -9.9    0.000    0.000      99        0.00    0.000    0.000     242.6    242.6    1.14   107.5     480.2     132.6     132.6      81.1      81.1      27.8    0.000     0.000     0.000     0.000     0.000    1.14     0.00    0.00      0   -9.90   -9.00        9.4        9.4        9.4        9.4        9.4        9.4        9.4       11.1       11.7       11.7       11.7       11.7        0.0        0.0        0.0        0.0        0.0        0.0        0.0        0.0        0.0        0.0        0.0        0.0      3.7      13.6      21.2      27.1      32.9    391.85
     5     8  2011    36     2     243.4    16.9      0.0    0.0   16.6    0.4      0.0      0.0   -9.90      5.7      5.5     96     10.3     10.3   100     16.0    15.8      99     16.8    1.16      0      0      0      0      0    50.8    50.8      0     0.68     10.3     10.3     10.3   100    34.3     1.771    -9.9    0.000    0.000      99        0.00    0.000    0.000     243.4    243.4    1.16   111.4     489.6     135.2     135.2      86.3      86.3      28.4    0.000     0.000     0.000     0.000     0.000    1.16     0.00    0.00      0   -9.90   -9.00        9.6        9.6        9.6        9.6        9.6        9.6        9.6       10.7       11.7       11.7       11.7       11.7        0.0        0.0        0.0        0.0        0.0        0.0        0.0        0.0        0.0        0.0        0.0        0.0     16.9      15.1      19.6      26.9      34.2    391.85
     6     8  2011    37     2     242.0     2.1     11.4    0.0    2.1    0.0      0.0      0.0   -9.90      4.6      3.9     84     11.0     11.0   100     15.5    14.8      95     17.2    1.18      0      0      0      0      0    57.6    57.6      0     0.75     11.0     11.0     11.0   100    34.3     2.027    -9.9    0.000    0.000      99        0.00    0.000    0.000     242.0    242.0    1.18   112.9     499.0     137.8     137.8      87.0      87.0      28.9    0.000     0.000     0.000     0.000     0.000    1.18     0.00    0.00      0   -9.90   -9.00        9.5        9.5        9.6        9.6        9.6        9.6        9.6       10.2       11.7       11.7       11.7       11.7        0.0        0.0        0.0        0.0        0.0        0.0        0.0        0.0        0.0        0.0        0.0        0.0      2.1      14.7      20.4      27.2      34.0    391.85
     7     8  2011    38     2     240.6     3.0     10.3    0.0    3.0    0.0      0.0      0.0   -9.90      3.7      3.6     97     11.2     11.2   100     14.9    14.8      99     17.1    1.20      0      0      0      0      0    63.3    63.3      0     0.80     11.2     11.2     11.2   100    34.3     2.301    -9.9    0.000    0.000      99        0.00    0.000    0.000     240.6    240.6    1.20   114.1     508.3     140.3     140.3      87.1      87.1      29.5    0.000     0.000     0.000     0.000     0.000    1.20     0.00    0.00      0   -9.90   -9.00        9.4        9.4        9.5        9.5        9.5        9.5        9.5        9.8       11.7       11.7       11.7       11.7        0.0        0.0        0.0        0.0        0.0        0.0        0.0        0.0        0.0        0.0        0.0        0.0      3.0      14.1      20.2      26.7      33.1    391.85
     8     8  2011    39     2     240.5     8.0      7.1    0.0    8.0    0.0      0.0      0.0   -9.90      3.1      3.1    100     12.1     12.1   100     15.2    15.2     100     16.4    1.23      0      0      0      0      0    68.2    68.2      0     0.84     12.1     12.1     12.1   100    34.3     2.588    -9.9    0.000    0.000      99        0.00    0.000    0.000     240.5    240.5    1.23   116.4     517.5     142.9     142.9      89.5      89.5      30.0    0.000     0.000     0.000     0.000     0.000    1.23     0.00    0.00      0   -9.90   -9.00        9.5        9.5        9.5        9.5        9.5        9.5        9.5        9.6       11.7       11.7       11.7       11.7        0.0        0.0        0.0        0.0        0.0        0.0        0.0        0.0        0.0        0.0        0.0        0.0      8.0      14.4      18.9      25.9      32.9    391.85
     9     8  2011    40     2     240.5     6.5      8.8    0.0    6.5    0.0      0.0      0.0   -9.90      2.7      2.7    100     12.6     12.6   100     15.3    15.3     100     18.0    1.25      0      0      0      0      0    72.3    72.3      0     0.87     12.6     12.6     12.6   100    34.3     2.887    -9.9    0.000    0.000      99        0.00    0.000    0.000     240.5    240.5    1.25   118.5     526.7     145.4     145.4      91.5      91.5      30.6    0.000     0.000     0.000     0.000     0.000    1.25     0.00    0.00      0   -9.90   -9.00        9.5        9.5        9.5        9.5        9.5        9.5        9.5        9.6       11.7       11.7       11.7       11.7        0.0        0.0        0.0        0.0        0.0        0.0        0.0        0.0        0.0        0.0        0.0        0.0      6.5      14.5      21.9      28.4      34.8    391.85
    10     8  2011    41     2     241.6     1.1     15.9    0.0    1.1    0.0      0.0      0.0   -9.90      2.4      2.1     89     13.8     13.8   100     16.2    15.9      98     16.7    1.27      6      0      0      0      0    75.6    75.6      0     0.90     13.8     13.8     13.8   100    34.3     3.194    -9.9    0.000    0.000      99        0.00    0.000    0.000     241.6    241.6    1.27   121.6     535.8     147.9     147.9      95.4      95.4      31.1    0.000     0.000     0.000     0.000     0.000    1.27     0.00    0.00      0   -9.90   -9.00        9.6        9.6        9.6        9.6        9.6        9.6        9.6        9.6       11.7       11.7       11.7       11.7        0.0        0.0        0.0        0.0        0.0        0.0        0.0        0.0        0.0        0.0        0.0        0.0      1.1      15.4      19.4      27.0      34.6    391.85
    11     8  2011    42     2     241.2     5.3     10.1    0.0    5.3    0.0      0.0      0.0   -9.90      2.0      2.0    100     13.8     13.8   100     15.8    15.8     100     17.1    1.29      0      0      0      0      0    78.6    78.6      0     0.92     13.8     13.8     13.8   100    34.3     3.508    -9.9    0.000    0.000      99        0.00    0.000    0.000     241.2    241.2    1.29   123.3     544.9     150.4     150.4      96.1      96.1      31.6    0.000     0.000     0.000     0.000     0.000    1.29     0.00    0.00      0   -9.90   -9.00        9.6        9.6        9.6        9.6        9.6        9.6        9.6        9.6       11.7       11.7       11.7       11.7        0.0        0.0        0.0        0.0        0.0        0.0        0.0        0.0        0.0        0.0        0.0        0.0      5.3      15.1      20.3      27.4      34.6    391.85
    12     8  2011    43     2     239.8     6.9      6.5    0.0    6.9    0.0      0.0      0.0   -9.90      1.6      1.6    100     13.3     13.3   100     14.9    14.9     100     17.7    1.31      0      0      0      0      0    81.1    81.1      0     0.94     13.3     13.3     13.3   100    34.3     3.829    -9.9    0.000    0.000      99        0.00    0.000    0.000     239.8    239.8    1.31   124.3     553.9     152.9     152.9      95.3      95.3      32.2    0.000     0.000     0.000     0.000     0.000    1.31     0.00    0.00      0   -9.90   -9.00        9.5        9.5        9.5        9.5        9.5        9.5        9.5        9.5       11.6       11.7       11.7       11.7        0.0        0.0        0.0        0.0        0.0        0.0        0.0        0.0        0.0        0.0        0.0        0.0      6.9      14.2      21.4      27.7      34.0    391.85
    13     8  2011    44     2     239.9     1.4     14.2    0.0    1.4    0.0      0.0      0.0   -9.90      1.4      1.4    100     14.0     14.0   100     15.4    15.4     100     16.9    1.33      4      0      0      0      0    83.2    83.2      0     0.95     14.0     14.0     14.0   100    34.3     4.156    -9.9    0.000    0.000      99        0.00    0.000    0.000     239.9    239.9    1.33   127.4     562.8     155.4     155.4      98.4      98.4      32.7    0.000     0.000     0.000     0.000     0.000    1.33     0.00    0.00      0   -9.90   -9.00        9.5        9.5        9.6        9.6        9.6        9.6        9.6        9.6       11.3       11.7       11.7       11.7        0.0        0.0        0.0        0.0        0.0        0.0        0.0        0.0        0.0        0.0        0.0        0.0      1.4      14.7      19.7      26.8      33.9    391.85
    14     8  2011    45     2     239.5     0.8     14.5    0.0    0.8    0.0      0.0      0.0   -9.90      1.3      1.2     96     14.5     14.5   100     15.8    15.8     100     16.8    1.35      8      0      0      0      0    84.8    84.8      0     0.96     14.5     14.5     14.5   100    34.3     4.486    -9.9    0.000    0.000      99        0.00    0.000    0.000     239.5    239.5    1.35   130.1     571.7     157.8     157.8     101.0     101.0      33.2    0.000     0.000     0.000     0.000     0.000    1.35     0.00    0.00      0   -9.90   -9.00        9.6        9.6        9.6        9.6        9.6        9.6        9.6        9.6       11.0       11.7       11.7       11.7        0.0        0.0        0.0        0.0        0.0        0.0        0.0        0.0        0.0        0.0        0.0        0.0      0.8      15.1      19.6      27.0      34.4    391.85
    15     8  2011    46     2     243.0    17.8      0.0    0.0   17.3    0.5      0.0      0.0   -9.90      1.0      1.0    100     12.8     12.8   100     13.8    13.8     100     17.0    1.37      0      0      0      0      0    86.4    86.4      0     0.97     12.8     12.8     12.8   100    34.3     4.820    -9.9    0.000    0.000      99        0.00    0.000    0.000     243.0    243.0    1.37   135.9     580.6     160.3     160.3      96.9      96.9      33.8    0.000     0.000     0.000     0.000     0.000    1.37     0.00    0.00      0   -9.90   -9.00       23.3        6.7        6.8        8.5        9.6        9.6        9.6        9.6       11.0       11.7       11.7       11.7        0.0        0.0        0.0        0.0        0.0        0.0        0.0        0.0        0.0        0.0        0.0        0.0     17.8      13.2      20.1      26.0      31.9    391.85
    16     8  2011    47     2     238.2     3.0      8.2    0.0    3.0    0.0      0.0      0.0   -9.90      1.0      1.0    100     14.9     14.9   100     15.9    15.9     100     17.1    1.40      0      0      0      0      0    87.7    87.7      0     0.98     14.9     14.9     14.9   100    34.3     5.157    -9.9    0.000    0.000      99        0.00    0.000    0.000     238.2    238.2    1.40   134.3     589.4     162.7     162.7     104.3     104.3      34.3    0.000     0.000     0.000     0.000     0.000    1.40     0.00    0.00      0   -9.90   -9.00        9.6        9.6        9.6        9.6        9.6        9.6        9.6        9.6       10.4       11.7       11.7       11.7        0.0        0.0        0.0        0.0        0.0        0.0        0.0        0.0        0.0        0.0        0.0        0.0      3.0      15.2      20.1      27.5      34.8    391.85
    17     8  2011    48     2     235.8     5.6      6.8    0.0    5.6    0.0      0.0      0.0   -9.90      0.8      0.8    100     14.0     14.0   100     14.8    14.8     100     17.1    1.42      0      0      0      0      0    88.9    88.9      0     0.99     14.0     14.0     14.0   100    34.3     5.497    -9.9    0.000    0.000      99        0.00    0.000    0.000     235.8    235.8    1.42   134.6     598.2     165.1     165.1     102.9     102.9      34.8    0.000     0.000     0.000     0.000     0.000    1.42     0.00    0.00      0   -9.90   -9.00        9.5        9.5        9.5        9.5        9.5        9.5        9.5        9.5       10.0       11.7       11.7       11.7        0.0        0.0        0.0        0.0        0.0        0.0        0.0        0.0        0.0        0.0        0.0        0.0      5.6      14.2      20.2      26.9      33.5    391.85
    18     8  2011    49     2     236.4     5.3     11.1    0.0    5.3    0.0      0.0      0.0   -9.90      0.7      0.7    100     15.0     15.0   100     15.8    15.8     100     16.9    1.44      0      0      0      0      0    89.8    89.8      0     1.00     15.0     15.0     15.0   100    34.3     5.838    -9.9    0.000    0.000      99        0.00    0.000    0.000     236.4    236.4    1.44   137.6     606.9     167.5     167.5     107.1     107.1      35.3    0.000     0.000     0.000     0.000     0.000    1.44     0.00    0.00      0   -9.90   -9.00        9.6        9.6        9.6        9.6        9.6        9.6        9.6        9.6        9.8       11.7       11.7       11.7        0.0        0.0        0.0        0.0        0.0        0.0        0.0        0.0        0.0        0.0        0.0        0.0      5.3      15.1      19.7      27.1      34.5    391.85
    19     8  2011    50     2     235.9     0.6     14.4    0.0    0.6    0.0      0.0      0.0   -9.90      0.7      0.7    100     14.9     14.9   100     15.6    15.6     100     16.9    1.46      9      0      0      0      0    90.6    90.6      0     1.00     14.9     14.9     14.9   100    34.3     6.182    -9.9    0.000    0.000      99        0.00    0.000    0.000     235.9    235.9    1.46   139.1     615.5     169.9     169.9     108.1     108.1      35.8    0.000     0.000     0.000     0.000     0.000    1.46     0.00    0.00      0   -9.90   -9.00        9.5        9.5        9.6        9.6        9.6        9.6        9.6        9.6        9.7       11.7       11.7       11.7        0.0        0.0        0.0        0.0        0.0        0.0        0.0        0.0        0.0        0.0        0.0        0.0      0.6      14.9      19.7      27.0      34.3    391.85
    20     8  2011    51     2     237.7     1.0     17.7    0.0    1.0    0.0      0.0      0.0   -9.90      0.6      0.6    100     16.3     16.3   100     16.9    16.9     100     16.6    1.48      6      0      0      0      0    91.2    91.2      0     1.01     16.3     16.3     16.3   100    34.3     6.527    -9.9    0.000    0.000      99        0.00    0.000    0.000     237.7    237.7    1.48   142.9     624.2     172.3     172.3     113.6     113.6      36.3    0.000     0.000     0.000     0.000     0.000    1.48     0.00    0.00      0   -9.90   -9.00        9.7        9.7        9.7        9.7        9.7        9.7        9.7        9.7        9.7       11.7       11.7       11.7        0.0        0.0        0.0        0.0        0.0        0.0        0.0        0.0        0.0        0.0        0.0        0.0      1.0      16.1      19.2      27.6      35.9    391.85
    21     8  2011    52     2     235.4     3.1      9.8    0.0    3.1    0.0      0.0      0.0   -9.90      0.5      0.5    100     14.8     14.8   100     15.3    15.3     100     16.9    1.50      0      0      0      0      0    91.8    91.8      0     1.01     14.8     14.8     14.8   100    34.3     6.874    -9.9    0.000    0.000      99        0.00    0.000    0.000     235.4    235.4    1.50   142.6     632.8     174.7     174.7     110.3     110.3      36.8    0.000     0.000     0.000     0.000     0.000    1.50     0.00    0.00      0   -9.90   -9.00        9.5        9.5        9.6        9.6        9.6        9.6        9.6        9.6        9.6       11.7       11.7       11.7        0.0        0.0        0.0        0.0        0.0        0.0        0.0        0.0        0.0        0.0        0.0        0.0      3.1      14.6      19.8      26.9      34.0    391.85
    22     8  2011    53     2     234.8     2.7     11.7    0.0    2.7    0.0      0.0      0.0   -9.90      0.5      0.5    100     14.5     14.5   100     15.0    15.0     100     16.9    1.52      0      0      0      0      0    92.3    92.3      0     1.01     14.5     14.5     14.5   100    34.3     7.221    -9.9    0.000    0.000      99        0.00    0.000    0.000     234.8    234.8    1.52   143.9     641.3     177.0     177.0     110.7     110.7      37.3    0.000     0.000     0.000     0.000     0.000    1.52     0.00    0.00      0   -9.90   -9.00        9.5        9.5        9.5        9.5        9.5        9.5        9.5        9.5        9.5       11.7       11.7       11.7        0.0        0.0        0.0        0.0        0.0        0.0        0.0        0.0        0.0        0.0        0.0        0.0      2.7      14.3      19.8      26.7      33.5    391.85
    23     8  2011    54     2     236.6     3.9     14.0    0.0    3.9    0.0      0.0      0.0   -9.90      0.4      0.4    100     15.7     15.7   100     16.1    16.1     100     17.4    1.54      0      0      0      0      0    92.7    92.7      0     1.02     15.7     15.7     15.7   100    34.3     7.570    -9.9    0.000    0.000      99        0.00    0.000    0.000     236.6    236.6    1.54   147.6     649.8     179.4     179.4     115.9     115.9      37.8    0.000     0.000     0.000     0.000     0.000    1.54     0.00    0.00      0   -9.90   -9.00        9.6        9.6        9.6        9.6        9.6        9.6        9.6        9.6        9.6       11.7       11.7       11.7        0.0        0.0        0.0        0.0        0.0        0.0        0.0        0.0        0.0        0.0        0.0        0.0      3.9      15.4      20.8      28.3      35.7    391.85
    24     8  2011    55     2     236.2     8.6      7.0    0.0    8.6    0.0      0.0      0.0   -9.90      0.4      0.4    100     15.6     15.6   100     16.0    16.0     100     17.4    1.56      0      0      0      0      0    93.0    93.0      0     1.02     15.6     15.6     15.6   100    34.3     7.919    -9.9    0.000    0.000      99        0.00    0.000    0.000     236.2    236.2    1.56   149.5     658.3     181.7     181.7     116.9     116.9      38.3    0.000     0.000     0.000     0.000     0.000    1.56     0.00    0.00      0   -9.90   -9.00        9.6        9.6        9.6        9.6        9.6        9.6        9.6        9.6        9.6       11.6       11.7       11.7        0.0        0.0        0.0        0.0        0.0        0.0        0.0        0.0        0.0        0.0        0.0        0.0      8.6      15.3      20.8      28.1      35.5    391.85
    25     8  2011    56     3     237.5     2.4     16.0    0.0    2.4    0.0      0.0      0.0   -9.90      0.4      0.4    100     16.7     16.7   100     17.1    17.1     100     15.9    1.58      0      0      0      0      0    93.3    93.3      0     1.02     16.7     16.7     16.7   100    34.3     8.269    -9.9    0.000    0.000      99        0.00    0.000    0.000     237.5    237.5    1.58   153.6     666.7     184.0     184.0     122.2     122.2      38.8    0.000     0.000     0.000     0.000     0.000    1.58     0.00    0.00      0   -9.90   -9.00        9.7        9.7        9.7        9.7        9.7        9.7        9.7        9.7        9.7       11.4       11.7       11.7        0.0        0.0        0.0        0.0        0.0        0.0        0.0        0.0        0.0        0.0        0.0        0.0      2.4      16.4      17.7      26.8      35.8    391.85
    26     8  2011    57     3     235.7    12.4      0.0    0.0   12.3    0.1      0.0      0.0   -9.90      0.3      0.3    100     13.8     13.8   100     14.2    14.2     100     17.2    1.60      0      0      0      0      0    93.6    93.6      0     1.02     13.8     13.8     13.8   100    34.3     8.620    -9.9    0.000    0.000      99        0.00    0.000    0.000     235.7    235.7    1.60   154.0     675.1     186.4     186.4     114.0     114.0      39.3    0.000     0.000     0.000     0.000     0.000    1.60     0.00    0.00      0   -9.90   -9.00       19.1        6.8        6.9        8.0        9.7        9.7        9.7        9.7        9.7       11.4       11.7       11.7        0.0        0.0        0.0        0.0        0.0        0.0        0.0        0.0        0.0        0.0        0.0        0.0     12.4      13.6      20.3      26.5      32.8    391.85
    27     8  2011    58     3     235.8     0.1     16.8    0.0    0.1    0.0      0.0      0.0   -9.90      0.3      0.3     99     16.5     16.5   100     16.8    16.8     100     16.1    1.62      0      0      0      0      0    93.7    93.7      0     1.02     16.5     16.5     16.5   100    34.3     8.971     1.5    0.135    0.150      99        0.02    0.000    0.000     235.8    235.8    1.62   157.2     683.5     188.7     188.7     124.1     124.1      39.8    0.000     0.000     0.000     0.000     0.000    1.62     0.00    0.00      0   -9.90   -9.00        9.7        9.7        9.7        9.7        9.7        9.7        9.7        9.7        9.7       11.0       11.7       11.7        0.0        0.0        0.0        0.0        0.0        0.0        0.0        0.0        0.0        0.0        0.0        0.0      0.1      16.1      18.2      26.9      35.6    391.85
    28     8  2011    59     3     231.6     5.2      5.4    0.0    5.2    0.0      0.0      0.0   -9.90      0.3      0.3    100     14.6     14.6   100     14.9    14.9     100     18.1    1.64      0      0      0      0      0    93.9    93.9      0     1.02     14.6     14.6     14.6   100    34.3     9.322     1.8    0.172    0.191      99        0.02    0.000    0.000     231.6    231.6    1.64   156.0     691.8     191.0     191.0     119.3     119.3      40.3    0.000     0.000     0.000     0.000     0.000    1.64     0.00    0.00      0   -9.90   -9.00        9.5        9.5        9.5        9.5        9.5        9.5        9.5        9.5        9.5       10.5       11.7       11.7        0.0        0.0        0.0        0.0        0.0        0.0        0.0        0.0        0.0        0.0        0.0        0.0      5.2      14.3      22.2      28.6      34.9    391.85
    29     8  2011    60     3     234.3     1.6     18.2    0.0    1.6    0.0      0.0      0.0   -9.90      0.3      0.3    100     16.8     16.8   100     17.1    17.1     100     15.9    1.66      3      0      0      0      0    94.0    94.0      0     1.02     16.8     16.8     16.8   100    34.3     9.673     2.3    0.219    0.243      99        0.03    0.000    0.000     234.3    234.3    1.66   161.2     700.1     193.3     193.3     128.3     128.3      40.8    0.000     0.000     0.000     0.000     0.000    1.66     0.00    0.00      0   -9.90   -9.00        9.7        9.7        9.7        9.7        9.7        9.7        9.7        9.7        9.7       10.2       11.7       11.7        0.0        0.0        0.0        0.0        0.0        0.0        0.0        0.0        0.0        0.0        0.0        0.0      1.6      16.4      17.9      26.9      36.0    391.85
    30     8  2011    61     3     231.2     4.5      8.1    0.0    4.5    0.0      0.0      0.0   -9.90      0.3      0.3    100     15.3     15.3   100     15.6    15.6     100     15.9    1.68      0      0      0      0      0    94.0    94.0      0     1.03     15.3     15.3     15.3   100    34.3    10.025     2.8    0.277    0.307      99        0.04    0.000    0.000     231.2    231.2    1.68   160.5     708.4     195.5     195.5     124.7     124.7      41.3    0.000     0.000     0.000     0.000     0.000    1.68     0.00    0.00      0   -9.90   -9.00        9.5        9.5        9.6        9.6        9.6        9.6        9.6        9.6        9.6        9.9       11.7       11.7        0.0        0.0        0.0        0.0        0.0        0.0        0.0        0.0        0.0        0.0        0.0        0.0      4.5      15.0      17.9      25.8      33.8    391.85
    31     8  2011    62     3     229.4     2.1     10.7    0.0    2.1    0.0      0.0      0.0   -9.90      0.3      0.3    100     14.4     14.4   100     14.7    14.7     100     17.7    1.70     -9      0      0      0      0    93.4    93.4      0     1.01     14.4     14.4     14.4   100    34.3    10.372     3.4    0.348    0.387      99        0.05    0.000    0.000     229.4    229.4    1.70   160.8     716.6     197.8     197.8     123.3     123.3      41.8    0.000     0.000     0.000     0.000     0.000    1.70     0.00    0.00      0   -9.90   -9.00        9.5        9.5        9.5        9.5        9.5        9.5        9.5        9.5        9.5        9.7       11.7       11.7        0.0        0.0        0.0        0.0        0.0        0.0        0.0        0.0        0.0        0.0        0.0        0.0      2.1      14.2      21.3      27.9      34.4    391.85
     1     9  2011    63     3     228.4     4.3      8.9    0.0    4.3    0.0      0.0      0.0   -9.90      0.3      0.3    100     13.9     13.9   100     14.2    14.2     100     16.6    1.71     -9      0      0      0      0    93.5    93.5      0     1.01     13.9     13.9     13.9   100    34.3    10.719     4.1    0.437    0.486      99        0.06    0.000    0.000     228.4    228.4    1.71   161.7     724.8     200.1     200.1     123.2     123.2      42.3    0.000     0.000     0.000     0.000     0.000    1.71     0.00    0.00      0   -9.90   -9.00        9.4        9.4        9.5        9.5        9.5        9.5        9.5        9.5        9.5        9.5       11.7       11.7        0.0        0.0        0.0        0.0        0.0        0.0        0.0        0.0        0.0        0.0        0.0        0.0      4.3      13.8      19.2      26.0      32.7    391.85
     2     9  2011    64     3     230.1     7.2      9.6    0.0    7.2    0.0      0.0      0.0   -9.90      0.3      0.3    100     14.9     14.9   100     15.2    15.2     100     16.9    1.73     -9      0      0      0      0    93.6    93.6      0     1.01     14.9     14.9     14.9   100    34.3    11.065     4.9    0.546    0.606      99        0.07    0.000    0.000     230.1    230.1    1.73   165.2     732.9     202.3     202.3     128.1     128.1      42.7    0.000     0.000     0.000     0.000     0.000    1.73     0.00    0.00      0   -9.90   -9.00        9.5        9.5        9.6        9.6        9.6        9.6        9.6        9.6        9.6        9.6       11.7       11.7        0.0        0.0        0.0        0.0        0.0        0.0        0.0        0.0        0.0        0.0        0.0        0.0      7.2      14.7      19.7      27.1      34.4    391.85
     3     9  2011    65     3     228.0     4.0      8.0    0.0    4.0    0.0      0.0      0.0   -9.90      0.3      0.3    100     13.7     13.7   100     14.0    14.0     100     17.5    1.75     -9      0      0      0      0    93.6    93.6      0     1.01     13.7     13.7     13.7   100    34.3    11.411     5.9    0.678    0.754      99        0.08    0.000    0.000     228.0    228.0    1.75   165.0     741.1     204.6     204.6     125.4     125.4      43.2    0.000     0.000     0.000     0.000     0.000    1.75     0.00    0.00      0   -9.90   -9.00        9.4        9.4        9.4        9.4        9.4        9.4        9.4        9.4        9.4        9.5       11.7       11.7        0.0        0.0        0.0        0.0        0.0        0.0        0.0        0.0        0.0        0.0        0.0        0.0      4.0      13.6      21.0      27.3      33.6    391.85
     4     9  2011    66     3     229.5     6.6      9.8    0.0    6.6    0.0      0.0      0.0   -9.90      0.3      0.3    100     14.5     14.5   100     14.9    14.9     100     17.1    1.77     -9      0      0      0      0    93.7    93.7      0     1.01     14.5     14.5     14.5   100    34.3    11.756     7.1    0.838    0.931      99        0.10    0.000    0.000     229.5    229.5    1.77   168.4     749.2     206.8     206.8     130.0     130.0      43.7    0.000     0.000     0.000     0.000     0.000    1.77     0.00    0.00      0   -9.90   -9.00        9.5        9.5        9.5        9.5        9.5        9.5        9.5        9.5        9.5        9.5       11.7       11.7        0.0        0.0        0.0        0.0        0.0        0.0        0.0        0.0        0.0        0.0        0.0        0.0      6.6      14.5      20.2      27.3      34.4    391.85
     5     9  2011    67     3     229.2    11.0      3.3    0.0   11.0    0.0      0.0      0.0   -9.90      0.3      0.3    100     14.3     14.3   100     14.6    14.6     100     16.9    1.79     -9      0      0      0      0    93.7    93.7      0     1.00     14.3     14.3     14.3   100    34.3    12.100     8.5    1.028    1.143      99        0.12    0.000    0.000     229.2    229.2    1.79   169.9     757.2     209.0     209.0     130.7     130.7      44.2    0.000     0.000     0.000     0.000     0.000    1.79     0.00    0.00      0   -9.90   -9.00        9.5        9.5        9.5        9.5        9.5        9.5        9.5        9.5        9.5        9.5       11.7       11.7        0.0        0.0        0.0        0.0        0.0        0.0        0.0        0.0        0.0        0.0        0.0        0.0     11.0      14.3      19.9      26.9      34.0    391.85
     6     9  2011    68     3     229.3     6.7      8.2    0.0    6.7    0.0      0.0      0.0   -9.90      0.3      0.3    100     14.5     14.5   100     14.8    14.8     100     16.7    1.81     -9      0      0      0      0    93.8    93.8      0     1.00     14.5     14.5     14.5   100    34.3    12.444    10.0    1.247    1.386      99        0.15    0.000    0.000     229.3    229.3    1.81   172.2     765.3     211.2     211.2     132.7     132.7      44.6    0.000     0.000     0.000     0.000     0.000    1.81     0.00    0.00      0   -9.90   -9.00        9.5        9.5        9.5        9.5        9.5        9.5        9.5        9.5        9.5        9.5       11.6       11.7        0.0        0.0        0.0        0.0        0.0        0.0        0.0        0.0        0.0        0.0        0.0        0.0      6.7      14.4      19.4      26.7      34.0    391.85
     7     9  2011    69     4     230.0     8.5      7.6    0.0    8.5    0.0      0.0      0.0   -9.90      0.3      0.3    100     15.1     15.1   100     15.4    15.4     100     16.5    1.83     -9      0      0      0      0    93.8    93.8      0     1.00     15.1     15.1     15.1   100    34.3    12.787    11.5    1.477    1.641      99        0.17    0.000    0.000     230.0    230.0    1.83   175.5     773.3     213.5     213.5     136.6     136.6      45.1    0.000     0.000     0.000     0.000     0.000    1.83     0.00    0.00      0   -9.90   -9.00        9.6        9.6        9.6        9.6        9.6        9.6        9.6        9.6        9.6        9.6       11.4       11.7        0.0        0.0        0.0        0.0        0.0        0.0        0.0        0.0        0.0        0.0        0.0        0.0      8.5      15.1      19.0      26.9      34.8    391.85
     8     9  2011    70     4     229.5     9.3      5.8    0.0    9.3    0.0      0.0      0.0   -9.90      0.3      0.3    100     15.2     15.2   100     15.5    15.5     100     16.6    1.85     -9      0      0      0      0    93.8    93.8      0     1.00     15.2     15.2     15.2   100    34.3    13.129    13.1    1.716    1.907      99        0.19    0.000    0.000     229.5    229.5    1.85   177.9     781.3     215.7     215.7     138.7     138.7      45.6    0.000     0.000     0.000     0.000     0.000    1.85     0.00    0.00      0   -9.90   -9.00        9.6        9.6        9.6        9.6        9.6        9.6        9.6        9.6        9.6        9.6       11.0       11.7        0.0        0.0        0.0        0.0        0.0        0.0        0.0        0.0        0.0        0.0        0.0        0.0      9.3      15.3      19.1      27.2      35.2    391.85
     9     9  2011    71     4     226.6     2.6      9.1    0.0    2.6    0.0      0.0      0.0   -9.90      0.3      0.3    100     14.2     14.2   100     14.5    14.5     100     16.8    1.87     -9      0      0      0      0    93.9    93.9      0     1.00     14.2     14.2     14.2   100    34.3    13.470    14.6    1.966    2.185      99        0.22    0.000    0.000     226.6    226.6    1.87   177.8     789.2     217.9     217.9     136.3     136.3      46.1    0.000     0.000     0.000     0.000     0.000    1.87     0.00    0.00      0   -9.90   -9.00        9.5        9.5        9.5        9.5        9.5        9.5        9.5        9.5        9.5        9.5       10.6       11.7        0.0        0.0        0.0        0.0        0.0        0.0        0.0        0.0        0.0        0.0        0.0        0.0      2.6      14.3      19.5      26.8      34.0    391.85
    10     9  2011    72     4     224.7     4.8      7.3    0.0    4.8    0.0      0.0      0.0   -9.90      0.3      0.3    100     13.7     13.7   100     14.0    14.0     100     16.9    1.89     -9      0      0      0      0    93.9    93.9      0     0.99     13.7     13.7     13.7   100    34.3    13.811    16.1    2.227    2.474      99        0.24    0.000    0.000     224.7    224.7    1.89   178.5     797.2     220.0     220.0     135.7     135.7      46.5    0.000     0.000     0.000     0.000     0.000    1.89     0.00    0.00      0   -9.90   -9.00        9.4        9.4        9.5        9.5        9.5        9.5        9.5        9.5        9.5        9.5       10.2       11.7        0.0        0.0        0.0        0.0        0.0        0.0        0.0        0.0        0.0        0.0        0.0        0.0      4.8      13.8      19.9      26.7      33.5    391.85
    11     9  2011    73     4     229.9    18.9      0.0    0.0   18.4    0.5      0.0      0.0   -9.90      0.3      0.3    100     12.9     12.9   100     13.2    13.2     100     16.9    1.90     -9      0      0      0      0    93.9    93.9      0     0.99     12.9     12.9     12.9   100    34.3    14.150    17.6    2.497    2.775      99        0.27    0.000    0.000     229.9    229.9    1.90   185.7     805.1     222.2     222.2     133.8     133.8      47.0    0.000     0.000     0.000     0.000     0.000    1.90     0.00    0.00      0   -9.90   -9.00       25.0        6.6        6.7        8.3        9.5        9.5        9.5        9.5        9.5        9.5       10.2       11.7        0.0        0.0        0.0        0.0        0.0        0.0        0.0        0.0        0.0        0.0        0.0        0.0     18.9      13.0      19.7      26.0      32.3    391.85
    12     9  2011    74     4     233.1    18.0      0.0    0.0   16.7    1.3      0.0      0.0   -9.90      0.3      0.3    100     13.2     13.2   100     13.5    13.5     100     17.0    1.92     -9      0      0      0      0    93.9    93.9      0     0.99     13.2     13.2     13.2   100    34.3    14.489    19.2    2.778    3.087      99        0.29    0.000    0.000     233.1    233.1    1.92   190.8     813.0     224.4     224.4     136.6     136.6      47.5    0.000     0.000     0.000     0.000     0.000    1.92     0.00    0.00      0   -9.90   -9.00       26.7        9.2        6.4        7.0        9.5        9.5        9.5        9.5        9.5        9.5       10.2       11.7        0.0        0.0        0.0        0.0        0.0        0.0        0.0        0.0        0.0        0.0        0.0        0.0     18.0      13.4      20.0      26.5      33.0    391.85
    13     9  2011    75     4     224.3     0.8      4.5    0.0    0.8    0.0      0.0      0.0   -9.90      0.3      0.3    100     13.9     13.9   100     14.2    14.2     100     18.1    1.94     -9      0      0      0      0    93.9    93.9      0     0.99     13.9     13.9     13.9   100    34.3    14.827    20.7    3.069    3.410      99        0.32    0.000    0.000     224.3    224.3    1.94   184.3     820.8     226.6     226.6     141.1     141.1      47.9    0.000     0.000     0.000     0.000     0.000    1.94     0.00    0.00      0   -9.90   -9.00        9.5        9.5        9.5        9.5        9.5        9.5        9.5        9.5        9.5        9.5        9.8       11.7        0.0        0.0        0.0        0.0        0.0        0.0        0.0        0.0        0.0        0.0        0.0        0.0      0.8      14.1      22.2      28.8      35.4    391.85
    14     9  2011    76     4     221.2     2.8      7.0    0.0    2.8    0.0      0.0      0.0   -9.90      0.3      0.3    100     12.6     12.6   100     12.9    12.9     100     17.4    1.96     -9      0     -9      0      0    93.4    93.4      0     0.97     12.6     12.6     12.6   100    34.3    15.161    22.2    3.369    3.743      99        0.35    0.000    0.000     221.2    221.2    1.96   183.3     828.6     228.7     228.7     137.3     137.3      48.4    0.000     0.000     0.000     0.000     0.000    1.96     0.00    0.00      0   -9.90   -9.00        9.3        9.3        9.4        9.4        9.4        9.4        9.4        9.4        9.4        9.4        9.5       11.7        0.0        0.0        0.0        0.0        0.0        0.0        0.0        0.0        0.0        0.0        0.0        0.0      2.8      12.9      20.9      26.9      32.9    391.85
    15     9  2011    77     4     225.1     8.2     10.3    0.0    8.2    0.0      0.0      0.0   -9.90      0.4      0.4    100     14.3     14.3   100     14.7    14.7     100     16.5    1.98     -9      0     -9      0      0    92.7    92.7      0     0.96     14.3     14.3     14.3   100    34.3    15.490    23.7    3.678    4.087      99        0.37    0.000    0.000     225.1    225.1    1.98   188.9     836.4     230.9     230.9     146.9     146.9      48.8    0.000     0.000     0.000     0.000     0.000    1.98     0.00    0.00      0   -9.90   -9.00        9.5        9.5        9.6        9.6        9.6        9.6        9.6        9.6        9.6        9.6        9.6       11.7        0.0        0.0        0.0        0.0        0.0        0.0        0.0        0.0        0.0        0.0        0.0        0.0      8.2      14.9      19.0      27.0      35.0    391.85
    16     9  2011    78     4     222.0     3.7      6.4    0.0    3.7    0.0      0.0      0.0   -9.90      0.4      0.4    100     12.7     12.7   100     13.1    13.1     100     17.0    2.00     -9      0     -9      0      0    92.0    92.0      0     0.94     12.7     12.7     12.7   100    34.3    15.814    25.3    3.996    4.441      99        0.40    0.000    0.000     222.0    222.0    2.00   187.7     844.2     233.0     233.0     142.2     142.2      49.3    0.000     0.000     0.000     0.000     0.000    2.00     0.00    0.00      0   -9.90   -9.00        9.4        9.4        9.4        9.4        9.4        9.4        9.4        9.4        9.4        9.4        9.5       11.7        0.0        0.0        0.0        0.0        0.0        0.0        0.0        0.0        0.0        0.0        0.0        0.0      3.7      13.4      19.9      26.6      33.3    391.85
    17     9  2011    79     4     224.2     2.4     13.8    0.0    2.4    0.0      0.0      0.0   -9.90      0.6      0.6    100     13.4     13.4   100     14.0    14.0     100     17.1    2.01     -9      0     -9      0      0    91.1    91.1      0     0.93     13.4     13.4     13.4   100    34.3    16.132    26.8    4.323    4.803      99        0.43    0.000    0.000     224.2    224.2    2.01   191.5     852.0     235.2     235.2     147.9     147.9      49.8    0.000     0.000     0.000     0.000     0.000    2.01     0.00    0.00      0   -9.90   -9.00        9.5        9.5        9.5        9.5        9.5        9.5        9.5        9.5        9.5        9.5        9.5       11.7        0.0        0.0        0.0        0.0        0.0        0.0        0.0        0.0        0.0        0.0        0.0        0.0      2.4      14.5      20.3      27.7      35.1    391.85
    18     9  2011    80     4     222.2     4.3      6.7    0.0    4.3    0.0      0.0      0.0   -9.90      0.6      0.6    100     12.3     12.3   100     13.0    13.0     100     17.4    2.03     -9      0     -9      0      0    90.1    90.1      0     0.91     12.3     12.3     12.3   100    34.3    16.444    28.3    4.657    5.175      99        0.45    0.000    0.000     222.2    222.2    2.03   191.3     859.7     237.3     237.3     145.4     145.4      50.2    0.000     0.000     0.000     0.000     0.000    2.03     0.00    0.00      0   -9.90   -9.00        9.4        9.4        9.4        9.4        9.4        9.4        9.4        9.4        9.4        9.4        9.4       11.7        0.0        0.0        0.0        0.0        0.0        0.0        0.0        0.0        0.0        0.0        0.0        0.0      4.3      13.6      20.7      27.4      34.0    391.85
    19     9  2011    81     4     223.5     6.9      7.6    0.0    6.9    0.0      0.0      0.0   -9.90      0.7      0.7    100     12.6     12.6   100     13.3    13.3     100     17.3    2.05     -9      0     -9      0      0    89.1    89.1      0     0.89     12.6     12.6     12.6   100    34.3    16.749    29.8    4.999    5.554      99        0.48    0.000    0.000     223.5    223.5    2.05   194.3     867.4     239.4     239.4     149.2     149.2      50.7    0.000     0.000     0.000     0.000     0.000    2.05     0.00    0.00      0   -9.90   -9.00        9.5        9.5        9.5        9.5        9.5        9.5        9.5        9.5        9.5        9.5        9.5       11.7        0.0        0.0        0.0        0.0        0.0        0.0        0.0        0.0        0.0        0.0        0.0        0.0      6.9      14.2      20.6      27.7      34.9    391.85
    20     9  2011    82     4     222.1    11.2      0.0    0.0   11.1    0.0      0.0      0.0   -9.90      0.8      0.8    100     11.7     11.7   100     12.5    12.5     100     17.4    2.07     -9      0     -9      0      0    87.8    87.8      0     0.87     11.7     11.7     11.7   100    34.3    17.046    31.4    5.348    5.942      99        0.51    0.000    0.000     222.1    222.1    2.07   195.1     875.1     241.5     241.5     147.4     147.4      51.1    0.000     0.000     0.000     0.000     0.000    2.07     0.00    0.00      0   -9.90   -9.00       17.1        6.6        6.7        9.2        9.5        9.5        9.5        9.5        9.5        9.5        9.5       11.7        0.0        0.0        0.0        0.0        0.0        0.0        0.0        0.0        0.0        0.0        0.0        0.0     11.2      13.4      20.9      27.4      34.0    391.85
    21     9  2011    83     4     221.8     1.8     10.4    0.0    1.8    0.0      0.0      0.0   -9.90      0.9      0.9    100     11.6     11.6   100     12.5    12.5     100     16.6    2.09     -9      0     -9      0      0    86.4    86.4      0     0.84     11.6     11.6     11.6   100    34.3    17.335    32.9    5.703    6.336      99        0.54    0.000    0.000     221.8    221.8    2.09   197.6     882.8     243.7     243.7     150.1     150.1      51.6    0.000     0.000     0.000     0.000     0.000    2.09     0.00    0.00      0   -9.90   -9.00        9.4        9.4        9.5        9.5        9.5        9.5        9.5        9.5        9.5        9.5        9.5       11.4        0.0        0.0        0.0        0.0        0.0        0.0        0.0        0.0        0.0        0.0        0.0        0.0      1.8      13.8      19.3      26.5      33.7    391.85
    22     9  2011    84     4     221.4     6.8      5.4    0.0    6.8    0.0      0.0      0.0   -9.90      1.1      1.1    100     11.5     11.5   100     12.6    12.6     100     16.7    2.10     -9      0     -9      0      0    84.9    84.9      0     0.82     11.5     11.5     11.5   100    34.3    17.615    34.4    6.063    6.737      99        0.56    0.000    0.000     221.4    221.4    2.10   200.1     890.4     245.8     245.8     152.8     152.8      52.0    0.000     0.000     0.000     0.000     0.000    2.10     0.00    0.00      0   -9.90   -9.00        9.4        9.4        9.5        9.5        9.5        9.5        9.5        9.5        9.5        9.5        9.5       11.0        0.0        0.0        0.0        0.0        0.0        0.0        0.0        0.0        0.0        0.0        0.0        0.0      6.8      14.1      19.5      26.9      34.4    391.85
    23     9  2011    85     4     220.2     2.3      8.8    0.0    2.3    0.0      0.0      0.0   -9.90      1.2      1.2    100     11.0     11.0   100     12.2    12.2     100     17.2    2.12     -9      0     -9      0      0    83.1    83.1      0     0.79     11.0     11.0     11.0   100    34.3    17.885    35.9    6.429    7.143      99        0.59    0.000    0.000     220.2    220.2    2.12   201.6     898.0     247.9     247.9     153.8     153.8      52.5    0.000     0.000     0.000     0.000     0.000    2.12     0.00    0.00      0   -9.90   -9.00        9.4        9.4        9.5        9.5        9.5        9.5        9.5        9.5        9.5        9.5        9.5       10.5        0.0        0.0        0.0        0.0        0.0        0.0        0.0        0.0        0.0        0.0        0.0        0.0      2.3      14.0      20.5      27.7      34.8    391.85
    24     9  2011    86     4     217.6     5.6      3.1    0.0    5.6    0.0      0.0      0.0   -9.90      1.3      1.3    100     10.0     10.0   100     11.3    11.3     100     17.6    2.14     -9      0     -9      0      0    81.1    81.1      0     0.75     10.0     10.0     10.0   100    34.3    18.144    37.5    6.799    7.554      99        0.62    0.000    0.000     217.6    217.6    2.14   201.5     905.6     250.0     250.0     151.8     151.8      52.9    0.000     0.000     0.000     0.000     0.000    2.14     0.00    0.00      0   -9.90   -9.00        9.4        9.4        9.4        9.4        9.4        9.4        9.4        9.4        9.4        9.4        9.4       10.1        0.0        0.0        0.0        0.0        0.0        0.0        0.0        0.0        0.0        0.0        0.0        0.0      5.6      13.3      21.2      27.7      34.1    391.85
    25     9  2011    87     4     218.0    10.4      1.5    0.0   10.4    0.0      0.0      0.0   -9.90      1.5      1.5    100      9.9      9.9   100     11.4    11.4     100     17.1    2.16     -9      0     -9      0      0    78.9    78.9      0     0.72      9.9      9.9      9.9   100    34.3    18.390    39.0    7.171    7.968      99        0.64    0.000    0.000     218.0    218.0    2.16   204.1     913.2     252.1     252.1     155.4     155.4      53.4    0.000     0.000     0.000     0.000     0.000    2.16     0.00    0.00      0   -9.90   -9.00        9.4        9.4        9.5        9.5        9.5        9.5        9.5        9.5        9.5        9.5        9.5        9.8        0.0        0.0        0.0        0.0        0.0        0.0        0.0        0.0        0.0        0.0        0.0        0.0     10.4      13.8      20.2      27.3      34.5    391.85
[...]
    10    12  2015    -9     0     217.5     1.4      0.0    0.0    1.4    0.0      0.0      0.0   -9.90     11.0      2.9     27      0.0      0.0   100     11.0     2.9      27     16.5    2.28     -9     -9     -9      0     -9     0.0     0.0      0    -9.00      0.0      0.0      0.0   100    34.5    19.980    48.2    9.626   10.695     100        0.82    0.000    0.000     217.5    217.5    2.28   215.9     965.7     266.5     266.5     145.8     160.5      56.5    0.000     0.000     0.000     0.000     0.000    2.28     0.00    0.00      0   -9.90   -9.00        2.9        9.5       11.7       10.8        9.5        9.5        9.5        9.5        9.5        9.5        9.5        9.6        0.0        0.0        0.0        0.0        0.0        0.0        0.0        0.0        0.0        0.0        0.0        0.0      1.4      10.0      19.1      25.6      32.1    401.01
    11    12  2015    -9     0     218.4     6.4      0.0    0.0    6.4    0.0      0.0      0.0   -9.90     10.7      5.5     52      0.0      0.0   100     10.7     5.5      52     18.3    2.28     -9     -9     -9      0     -9     0.0     0.0      0    -9.00      0.0      0.0      0.0   100    34.5    19.980    48.2    9.626   10.695     100        0.82    0.000    0.000     218.4    218.4    2.28   216.7     965.7     266.5     266.5     144.4     160.5      56.5    0.000     0.000     0.000     0.000     0.000    2.28     0.00    0.00      0   -9.90   -9.00        3.7        9.5       11.7       10.8        9.5        9.5        9.5        9.5        9.5        9.5        9.5        9.6        0.0        0.0        0.0        0.0        0.0        0.0        0.0        0.0        0.0        0.0        0.0        0.0      6.4       9.7      22.5      28.0      33.5    401.01
    12    12  2015    -9     0     224.7    14.6      0.0    0.0   14.6    0.0      0.0      0.0   -9.90     11.6      8.3     72      0.0      0.0   100     11.6     8.3      72     16.8    2.28     -9     -9     -9      0     -9     0.0     0.0      0    -9.00      0.0      0.0      0.0   100    34.5    19.980    48.2    9.626   10.695     100        0.82    0.000    0.000     224.7    224.7    2.28   223.0     965.7     266.5     266.5     148.6     160.5      56.5    0.000     0.000     0.000     0.000     0.000    2.28     0.00    0.00      0   -9.90   -9.00       10.1        9.5       11.7       10.8        9.5        9.5        9.5        9.5        9.5        9.5        9.5        9.6        0.0        0.0        0.0        0.0        0.0        0.0        0.0        0.0        0.0        0.0        0.0        0.0     14.6      10.6      19.6      26.6      33.5    401.01
    13    12  2015    -9     0     224.3     7.9      0.0    0.0    7.9    0.0      0.0      0.0   -9.90     11.5      8.3     72      0.0      0.0   100     11.5     8.3      72     17.3    2.28     -9     -9     -9      0     -9     0.0     0.0      0    -9.00      0.0      0.0      0.0   100    34.5    19.980    48.2    9.626   10.695     100        0.82    0.000    0.000     224.3    224.3    2.28   222.6     965.7     266.5     266.5     148.0     160.5      56.5    0.000     0.000     0.000     0.000     0.000    2.28     0.00    0.00      0   -9.90   -9.00        9.7        9.5       11.7       10.8        9.5        9.5        9.5        9.5        9.5        9.5        9.5        9.6        0.0        0.0        0.0        0.0        0.0        0.0        0.0        0.0        0.0        0.0        0.0        0.0      7.9      10.4      20.6      27.2      33.8    401.01
    14    12  2015    -9     0     221.8     5.5      0.0    0.0    5.5    0.0      0.0      0.0   -9.90     11.3      8.0     71      0.0      0.0   100     11.3     8.0      71     17.6    2.28     -9     -9     -9      0     -9     0.0     0.0      0    -9.00      0.0      0.0      0.0   100    34.5    19.980    48.2    9.626   10.695     100        0.82    0.000    0.000     221.8    221.8    2.28   220.1     965.7     266.5     266.5     147.2     160.5      56.5    0.000     0.000     0.000     0.000     0.000    2.28     0.00    0.00      0   -9.90   -9.00        7.2        9.5       11.7       10.8        9.5        9.5        9.5        9.5        9.5        9.5        9.5        9.6        0.0        0.0        0.0        0.0        0.0        0.0        0.0        0.0        0.0        0.0        0.0        0.0      5.5      10.3      21.2      27.6      33.9    401.01
    15    12  2015    -9     0     222.9     9.5      0.0    0.0    9.5    0.0      0.0      0.0   -9.90     12.1      8.4     70      0.0      0.0   100     12.1     8.4      70     17.1    2.28     -9     -9     -9      0     -9     0.0     0.0      0    -9.00      0.0      0.0      0.0   100    34.5    19.980    48.2    9.626   10.695     100        0.82    0.000    0.000     222.9    222.9    2.28   221.2     965.7     266.5     266.5     150.6     160.5      56.5    0.000     0.000     0.000     0.000     0.000    2.28     0.00    0.00      0   -9.90   -9.00        8.3        9.5       11.7       10.8        9.5        9.5        9.5        9.5        9.5        9.5        9.5        9.6        0.0        0.0        0.0        0.0        0.0        0.0        0.0        0.0        0.0        0.0        0.0        0.0      9.5      11.0      20.2      27.5      34.7    401.01
    16    12  2015    -9     0     219.3     3.7      0.0    0.0    3.7    0.0      0.0      0.0   -9.90     11.7      7.2     62      0.0      0.0   100     11.7     7.2      62     17.2    2.28     -9     -9     -9      0     -9     0.0     0.0      0    -9.00      0.0      0.0      0.0   100    34.5    19.980    48.2    9.626   10.695     100        0.82    0.000    0.000     219.3    219.3    2.28   217.6     965.7     266.5     266.5     148.9     160.5      56.5    0.000     0.000     0.000     0.000     0.000    2.28     0.00    0.00      0   -9.90   -9.00        4.7        9.5       11.7       10.8        9.5        9.5        9.5        9.5        9.5        9.5        9.5        9.6        0.0        0.0        0.0        0.0        0.0        0.0        0.0        0.0        0.0        0.0        0.0        0.0      3.7      10.6      20.4      27.3      34.1    401.01
    17    12  2015    -9     0     219.7     8.1      0.0    0.0    8.1    0.0      0.0      0.0   -9.90     11.0      7.7     70      0.0      0.0   100     11.0     7.7      70     16.9    2.28     -9     -9     -9      0     -9     0.0     0.0      0    -9.00      0.0      0.0      0.0   100    34.5    19.980    48.2    9.626   10.695     100        0.82    0.000    0.000     219.7    219.7    2.28   218.1     965.7     266.5     266.5     145.9     160.5      56.5    0.000     0.000     0.000     0.000     0.000    2.28     0.00    0.00      0   -9.90   -9.00        5.1        9.5       11.7       10.8        9.5        9.5        9.5        9.5        9.5        9.5        9.5        9.6        0.0        0.0        0.0        0.0        0.0        0.0        0.0        0.0        0.0        0.0        0.0        0.0      8.1      10.0      19.8      26.2      32.6    401.01
    18    12  2015    -9     0     218.2     3.9      0.0    0.0    3.9    0.0      0.0      0.0   -9.90     11.1      5.4     48      0.0      0.0   100     11.1     5.4      48     17.9    2.28     -9     -9     -9      0     -9     0.0     0.0      0    -9.00      0.0      0.0      0.0   100    34.5    19.980    48.2    9.626   10.695     100        0.82    0.000    0.000     218.2    218.2    2.28   216.5     965.7     266.5     266.5     146.4     160.5      56.5    0.000     0.000     0.000     0.000     0.000    2.28     0.00    0.00      0   -9.90   -9.00        3.5        9.5       11.7       10.8        9.5        9.5        9.5        9.5        9.5        9.5        9.5        9.6        0.0        0.0        0.0        0.0        0.0        0.0        0.0        0.0        0.0        0.0        0.0        0.0      3.9      10.1      21.8      27.9      33.9    401.01
    19    12  2015    -9     0     217.0     1.9      0.0    0.0    1.9    0.0      0.0      0.0   -9.90     11.8      3.2     27      0.0      0.0   100     11.8     3.2      27     17.1    2.28     -9     -9     -9      0     -9     0.0     0.0      0    -9.00      0.0      0.0      0.0   100    34.5    19.980    48.2    9.626   10.695     100        0.82    0.000    0.000     217.0    217.0    2.28   215.3     965.7     266.5     266.5     149.4     160.5      56.5    0.000     0.000     0.000     0.000     0.000    2.28     0.00    0.00      0   -9.90   -9.00        2.3        9.5       11.7       10.8        9.5        9.5        9.5        9.5        9.5        9.5        9.5        9.6        0.0        0.0        0.0        0.0        0.0        0.0        0.0        0.0        0.0        0.0        0.0        0.0      1.9      10.7      20.3      27.3      34.2    401.01
    20    12  2015    -9     0     218.4     7.3      0.0    0.0    7.3    0.0      0.0      0.0   -9.90     12.0      6.0     49      0.0      0.0   100     12.0     6.0      49     16.7    2.28     -9     -9     -9      0     -9     0.0     0.0      0    -9.00      0.0      0.0      0.0   100    34.5    19.980    48.2    9.626   10.695     100        0.82    0.000    0.000     218.4    218.4    2.28   216.7     965.7     266.5     266.5     150.5     160.5      56.5    0.000     0.000     0.000     0.000     0.000    2.28     0.00    0.00      0   -9.90   -9.00        3.7        9.5       11.7       10.8        9.5        9.5        9.5        9.5        9.5        9.5        9.5        9.6        0.0        0.0        0.0        0.0        0.0        0.0        0.0        0.0        0.0        0.0        0.0        0.0      7.3      10.9      19.4      26.9      34.3    401.01
    21    12  2015    -9     0     217.2     3.4      0.0    0.0    3.4    0.0      0.0      0.0   -9.90     12.3      4.6     38      0.0      0.0   100     12.3     4.6      38     17.0    2.28     -9     -9     -9      0     -9     0.0     0.0      0    -9.00      0.0      0.0      0.0   100    34.5    19.980    48.2    9.626   10.695     100        0.82    0.000    0.000     217.2    217.2    2.28   215.5     965.7     266.5     266.5     151.6     160.5      56.5    0.000     0.000     0.000     0.000     0.000    2.28     0.00    0.00      0   -9.90   -9.00        2.5        9.5       11.7       10.8        9.5        9.5        9.5        9.5        9.5        9.5        9.5        9.6        0.0        0.0        0.0        0.0        0.0        0.0        0.0        0.0        0.0        0.0        0.0        0.0      3.4      11.2      19.9      27.4      35.0    401.01
    22    12  2015    -9     0     216.3     0.6      0.0    0.0    0.6    0.0      0.0      0.0   -9.90     11.2      1.6     14      0.0      0.0   100     11.2     1.6      14     17.0    2.28     -9     -9     -9      0     -9     0.0     0.0      0    -9.00      0.0      0.0      0.0   100    34.5    19.980    48.2    9.626   10.695     100        0.82    0.000    0.000     216.3    216.3    2.28   214.6     965.7     266.5     266.5     146.6     160.5      56.5    0.000     0.000     0.000     0.000     0.000    2.28     0.00    0.00      0   -9.90   -9.00        1.6        9.5       11.7       10.8        9.5        9.5        9.5        9.5        9.5        9.5        9.5        9.6        0.0        0.0        0.0        0.0        0.0        0.0        0.0        0.0        0.0        0.0        0.0        0.0      0.6      10.2      20.0      26.5      33.0    401.01
    23    12  2015    -9     0     218.5     8.0      0.0    0.0    8.0    0.0      0.0      0.0   -9.90     11.3      5.8     51      0.0      0.0   100     11.3     5.8      51     17.3    2.28     -9     -9     -9      0     -9     0.0     0.0      0    -9.00      0.0      0.0      0.0   100    34.5    19.980    48.2    9.626   10.695     100        0.82    0.000    0.000     218.5    218.5    2.28   216.8     965.7     266.5     266.5     147.1     160.5      56.5    0.000     0.000     0.000     0.000     0.000    2.28     0.00    0.00      0   -9.90   -9.00        3.8        9.5       11.7       10.8        9.5        9.5        9.5        9.5        9.5        9.5        9.5        9.6        0.0        0.0        0.0        0.0        0.0        0.0        0.0        0.0        0.0        0.0        0.0        0.0      8.0      10.2      20.6      27.0      33.5    401.01
    24    12  2015    -9     0     217.2     0.5      0.0    0.0    0.5    0.0      0.0      0.0   -9.90     10.3      1.9     18      0.0      0.0   100     10.3     1.9      18     18.2    2.28     -9     -9     -9      0     -9     0.0     0.0      0    -9.00      0.0      0.0      0.0   100    34.5    19.980    48.2    9.626   10.695     100        0.82    0.000    0.000     217.2    217.2    2.28   215.5     965.7     266.5     266.5     142.9     160.5      56.5    0.000     0.000     0.000     0.000     0.000    2.28     0.00    0.00      0   -9.90   -9.00        2.5        9.5       11.7       10.8        9.5        9.5        9.5        9.5        9.5        9.5        9.5        9.6        0.0        0.0        0.0        0.0        0.0        0.0        0.0        0.0        0.0        0.0        0.0        0.0      0.5       9.4      22.3      27.6      32.9    401.01
    25    12  2015    -9     0     218.8     7.4      0.0    0.0    7.4    0.0      0.0      0.0   -9.90     10.6      5.8     55      0.0      0.0   100     10.6     5.8      55     17.1    2.28     -9     -9     -9      0     -9     0.0     0.0      0    -9.00      0.0      0.0      0.0   100    34.5    19.980    48.2    9.626   10.695     100        0.82    0.000    0.000     218.8    218.8    2.28   217.1     965.7     266.5     266.5     144.3     160.5      56.5    0.000     0.000     0.000     0.000     0.000    2.28     0.00    0.00      0   -9.90   -9.00        4.1        9.5       11.7       10.8        9.5        9.5        9.5        9.5        9.5        9.5        9.5        9.6        0.0        0.0        0.0        0.0        0.0        0.0        0.0        0.0        0.0        0.0        0.0        0.0      7.4       9.7      20.3      26.2      32.1    401.01
    26    12  2015    -9     0     218.9     7.0      0.0    0.0    7.0    0.0      0.0      0.0   -9.90     12.5      6.9     55      0.0      0.0   100     12.5     6.9      55     17.0    2.28     -9     -9     -9      0     -9     0.0     0.0      0    -9.00      0.0      0.0      0.0   100    34.5    19.980    48.2    9.626   10.695     100        0.82    0.000    0.000     218.9    218.9    2.28   217.2     965.7     266.5     266.5     152.6     160.5      56.5    0.000     0.000     0.000     0.000     0.000    2.28     0.00    0.00      0   -9.90   -9.00        4.2        9.5       11.7       10.8        9.5        9.5        9.5        9.5        9.5        9.5        9.5        9.6        0.0        0.0        0.0        0.0        0.0        0.0        0.0        0.0        0.0        0.0        0.0        0.0      7.0      11.4      20.0      27.6      35.3    401.01
    27    12  2015    -9     0     228.1    17.7      0.0    0.0   17.7    0.0      0.0      0.0   -9.90     11.0      8.5     77      0.0      0.0   100     11.0     8.5      77     17.7    2.28     -9     -9     -9      0     -9     0.0     0.0      0    -9.00      0.0      0.0      0.0   100    34.5    19.980    48.2    9.626   10.695     100        0.82    0.000    0.000     228.1    228.1    2.28   226.4     965.7     266.5     266.5     146.0     160.5      56.5    0.000     0.000     0.000     0.000     0.000    2.28     0.00    0.00      0   -9.90   -9.00       13.6        9.5       11.7       10.8        9.5        9.5        9.5        9.5        9.5        9.5        9.5        9.6        0.0        0.0        0.0        0.0        0.0        0.0        0.0        0.0        0.0        0.0        0.0        0.0     17.7      10.0      21.4      27.4      33.4    401.01
    28    12  2015    -9     0     232.4    14.1      0.0    0.0   13.4    0.6      0.0      0.0   -9.90     12.0      9.1     76      0.0      0.0   100     12.0     9.1      76     17.4    2.28     -9     -9     -9      0     -9     0.0     0.0      0    -9.00      0.0      0.0      0.0   100    34.5    19.980    48.2    9.626   10.695     100        0.82    0.000    0.000     232.4    232.4    2.28   230.7     965.7     266.5     266.5     150.3     160.5      56.5    0.000     0.000     0.000     0.000     0.000    2.28     0.00    0.00      0   -9.90   -9.00       16.3       10.7       11.7       10.8        9.5        9.5        9.5        9.5        9.5        9.5        9.5        9.6        0.0        0.0        0.0        0.0        0.0        0.0        0.0        0.0        0.0        0.0        0.0        0.0     14.1      10.9      20.8      27.7      34.7    401.01
    29    12  2015    -9     0     227.0     1.0      0.0    0.0    1.0    0.0      0.0      0.0   -9.90     12.8      6.5     50      0.0      0.0   100     12.8     6.5      50     16.7    2.28     -9     -9     -9      0     -9     0.0     0.0      0    -9.00      0.0      0.0      0.0   100    34.5    19.980    48.2    9.626   10.695     100        0.82    0.000    0.000     227.0    227.0    2.28   225.3     965.7     266.5     266.5     154.1     160.5      56.5    0.000     0.000     0.000     0.000     0.000    2.28     0.00    0.00      0   -9.90   -9.00        6.3       12.0       12.0       11.9        9.8        9.5        9.5        9.5        9.5        9.5        9.5        9.6        0.0        0.0        0.0        0.0        0.0        0.0        0.0        0.0        0.0        0.0        0.0        0.0      1.0      11.7      19.5      27.6      35.6    401.01
    30    12  2015    -9     0     224.0     3.8      0.0    0.0    3.8    0.0      0.0      0.0   -9.90     11.9      6.7     57      0.0      0.0   100     11.9     6.7      57     17.2    2.28     -9     -9     -9      0     -9     0.0     0.0      0    -9.00      0.0      0.0      0.0   100    34.5    19.980    48.2    9.626   10.695     100        0.82    0.000    0.000     224.0    224.0    2.28   222.3     965.7     266.5     266.5     149.7     160.5      56.5    0.000     0.000     0.000     0.000     0.000    2.28     0.00    0.00      0   -9.90   -9.00        3.3       11.7       11.8       11.8       10.4        9.5        9.5        9.5        9.5        9.5        9.5        9.6        0.0        0.0        0.0        0.0        0.0        0.0        0.0        0.0        0.0        0.0        0.0        0.0      3.8      10.8      20.4      27.3      34.3    401.01
    31    12  2015    -9     0     223.2     4.8      0.0    0.0    4.8    0.0      0.0      0.0   -9.90     11.8      5.7     48      0.0      0.0   100     11.8     5.7      48     17.3    2.28     -9     -9     -9      0     -9     0.0     0.0      0    -9.00      0.0      0.0      0.0   100    34.5    19.980    48.2    9.626   10.695     100        0.82    0.000    0.000     223.2    223.2    2.28   221.5     965.7     266.5     266.5     149.3     160.5      56.5    0.000     0.000     0.000     0.000     0.000    2.28     0.00    0.00      0   -9.90   -9.00        2.4       11.7       11.7       11.7       10.5        9.5        9.5        9.5        9.5        9.5        9.5        9.6        0.0        0.0        0.0        0.0        0.0        0.0        0.0        0.0        0.0        0.0        0.0        0.0      4.8      10.7      20.5      27.3      34.1    401.01
