AquaCrop 7.1 (August 2023) - Output created on (date) : 16-01-2026   at (time) : 12:17:19

   Run:   1
   Day Month  Year   DAP Stage   WC(2.30)   Rain     Irri   Surf   Infilt   RO    Drain       CR    Zgwt       Ex       E     E/Ex     Trx       Tr  Tr/Trx    ETx      ET  ET/ETx      GD       Z     StExp  StSto  StSen StSalt StWeed   CC      CCw     StTr  Kc(Tr)     Trx       Tr      TrW  Tr/Trx   WP    Biomass     HI    Y(dry)  Y(fresh)  Brelative    WPet      Bin     Bout  WC(2.30) Wr(2.30)     Z       Wr    Wr(SAT)    Wr(FC)   Wr(exp)   Wr(sto)   Wr(sen)   Wr(PWP)    SaltIn    SaltOut   SaltUp   Salt(2.30)  SaltZ     Z       ECe    ECsw   StSalt  Zgwt    ECgw       WC01       WC 2       WC 3       WC 4       WC 5       WC 6       WC 7       WC 8       WC 9       WC10       WC11       WC12      ECe01      ECe 2      ECe 3      ECe 4      ECe 5      ECe 6      ECe 7      ECe 8      ECe 9      ECe10      ECe11      ECe12     Rain       ETo      Tmin      Tavg      Tmax      CO2
                                      mm      mm       mm     mm     mm     mm       mm       mm      m        mm       mm     %        mm       mm    %        mm      mm       %  degC-day     m       %      %      %      %      %      %       %       %       -        mm       mm       mm    %     g/m2    ton/ha      %    ton/ha   ton/ha       %       kg/m3   ton/ha   ton/ha      mm       mm       m       mm        mm        mm        mm        mm        mm         mm    ton/ha    ton/ha    ton/ha    ton/ha    ton/ha     m      dS/m    dS/m      %     m      dS/m       0.05       0.18       0.33       0.48       0.63       0.80       1.00       1.20       1.43       1.68       1.93       2.18       0.05       0.18       0.33       0.48       0.63       0.80       1.00       1.20       1.43       1.68       1.93       2.18       mm        mm     degC      degC      degC       ppm
     1     7  2011     1     1     267.6     9.5      0.0    0.0    9.3    0.1      0.0      0.0   -9.90     16.3     10.4     64      0.0      0.0   100     16.3    10.4      64     17.5    0.30     -9     -9     -9      0     -9     0.0     0.0      0    -9.00      0.0      0.0      0.0   100     0.0     0.000    -9.9    0.000    0.000      -9        0.00    0.000    0.000     267.6    267.6    0.30    33.6     125.1      34.6      30.7      21.8      15.5       6.9    0.000     0.000     0.000     0.000     0.000    0.30     0.00    0.00      0   -9.90   -9.00       10.7       11.7       11.7       11.7       11.7       11.7       11.7       11.7       11.7       11.7       11.7       11.7        0.0        0.0        0.0        0.0        0.0        0.0        0.0        0.0        0.0        0.0        0.0        0.0      9.5      14.8      21.0      27.8      34.5    391.85
     2     7  2011     2     1     263.4     5.6      0.0    0.0    5.6    0.0      0.0      0.0   -9.90     16.4      9.8     60      0.0      0.0   100     16.4     9.8      60     17.5    0.30     -9     -9     -9      0     -9     0.0     0.0      0    -9.00      0.0      0.0      0.0   100     0.0     0.000    -9.9    0.000    0.000      -9        0.00    0.000    0.000     263.4    263.4    0.30    29.4     125.1      34.6      30.7      21.8      15.5       6.9    0.000     0.000     0.000     0.000     0.000    0.30     0.00    0.00      0   -9.90   -9.00        6.4       11.7       11.7       11.7       11.7       11.7       11.7       11.7       11.7       11.7       11.7       11.7        0.0        0.0        0.0        0.0        0.0        0.0        0.0        0.0        0.0        0.0        0.0        0.0      5.6      14.9      21.0      27.8      34.7    391.85
     3     7  2011     3     1     260.1     5.8      0.0    0.0    5.8    0.0      0.0      0.0   -9.90     16.6      9.0     54      0.0      0.0   100     16.6     9.0      54     16.9    0.30     -9     -9     -9      0     -9     0.0     0.0      0    -9.00      0.0      0.0      0.0   100     0.0     0.000    -9.9    0.000    0.000      -9        0.00    0.000    0.000     260.1    260.1    0.30    26.1     125.1      34.6      30.7      21.9      15.5       6.9    0.000     0.000     0.000     0.000     0.000    0.30     0.00    0.00      0   -9.90   -9.00        3.1       11.7       11.7       11.7       11.7       11.7       11.7       11.7       11.7       11.7       11.7       11.7        0.0        0.0        0.0        0.0        0.0        0.0        0.0        0.0        0.0        0.0        0.0        0.0      5.8      15.1      19.9      27.1      34.3    391.85
     4     7  2011     4     1     258.7     4.2      0.0    0.0    4.2    0.0      0.0      0.0   -9.90     14.8      5.7     38      0.0      0.0   100     14.8     5.7      38     16.8    0.30     -9     -9     -9      0     -9     0.0     0.0      0    -9.00      0.0      0.0      0.0   100     0.0     0.000    -9.9    0.000    0.000      -9        0.00    0.000    0.000     258.7    258.7    0.30    24.7     125.1      34.6      30.7      20.9      15.5       6.9    0.000     0.000     0.000     0.000     0.000    0.30     0.00    0.00      0   -9.90   -9.00        1.6       11.7       11.7       11.7       11.7       11.7       11.7       11.7       11.7       11.7       11.7       11.7        0.0        0.0        0.0        0.0        0.0        0.0        0.0        0.0        0.0        0.0        0.0        0.0      4.2      13.5      19.6      25.8      31.9    391.85
     5     7  2011     5     1     257.4     2.3      0.0    0.0    2.3    0.0      0.0      0.0   -9.90     16.0      3.5     22      0.0      0.0   100     16.0     3.5      22     17.1    0.32     -9     -9     -9      0     -9     0.0     0.0      0    -9.00      0.0      0.0      0.0   100     0.0     0.000    -9.9    0.000    0.000      -9        0.00    0.000    0.000     257.4    257.4    0.32    25.7     133.5      36.9      32.8      23.0      16.5       7.4    0.000     0.000     0.000     0.000     0.000    0.32     0.00    0.00      0   -9.90   -9.00        1.2       11.1       11.7       11.7       11.7       11.7       11.7       11.7       11.7       11.7       11.7       11.7        0.0        0.0        0.0        0.0        0.0        0.0        0.0        0.0        0.0        0.0        0.0        0.0      2.3      14.5      20.1      26.9      33.6    391.85
     6     7  2011     6     1     261.3    13.4      0.0    0.0   13.4    0.0      0.0      0.0   -9.90     17.4      9.4     54      0.0      0.0   100     17.4     9.4      54     16.3    0.36     -9     -9     -9      0     -9     0.0     0.0      0    -9.00      0.0      0.0      0.0   100     0.0     0.000    -9.9    0.000    0.000      -9        0.00    0.000    0.000     261.3    261.3    0.36    34.4     150.6      41.6      37.0      27.0      18.7       8.4    0.000     0.000     0.000     0.000     0.000    0.36     0.00    0.00      0   -9.90   -9.00        5.2       11.1       11.7       11.7       11.7       11.7       11.7       11.7       11.7       11.7       11.7       11.7        0.0        0.0        0.0        0.0        0.0        0.0        0.0        0.0        0.0        0.0        0.0        0.0     13.4      15.8      18.5      26.6      34.7    391.85
     7     7  2011     7     2     260.5     3.8      2.2    0.0    3.8    0.0      0.0      0.0   -9.90     17.1      6.7     39      0.1      0.1   100     17.2     6.8      39     17.0    0.40     -9      0      0      0      0     0.4     0.4      0     0.01      0.1      0.1      0.1   100    34.3     0.003    -9.9    0.000    0.000     100        0.00    0.000    0.000     260.5    260.5    0.40    37.9     166.4      46.0      46.0      29.7      29.7       9.3    0.000     0.000     0.000     0.000     0.000    0.40     0.00    0.00      0   -9.90   -9.00        9.6        9.6        9.7       11.7       11.7       11.7       11.7       11.7       11.7       11.7       11.7       11.7        0.0        0.0        0.0        0.0        0.0        0.0        0.0        0.0        0.0        0.0        0.0        0.0      3.8      15.7      20.0      27.6      35.2    391.85
     8     7  2011     8     2     259.0     4.5      3.1    0.0    4.5    0.0      0.0      0.0   -9.90     15.4      8.9     58      0.1      0.1   100     15.5     9.0      58     17.2    0.43     -9      0      0      0      0     0.5     0.5      0     0.01      0.1      0.1      0.1   100    34.3     0.006    -9.9    0.000    0.000     100        0.00    0.000    0.000     259.0    259.0    0.43    41.1     181.2      50.1      50.1      31.0      31.0      10.2    0.000     0.000     0.000     0.000     0.000    0.43     0.00    0.00      0   -9.90   -9.00        9.5        9.5        9.5       11.2       11.7       11.7       11.7       11.7       11.7       11.7       11.7       11.7        0.0        0.0        0.0        0.0        0.0        0.0        0.0        0.0        0.0        0.0        0.0        0.0      4.5      14.1      20.3      26.8      33.2    391.85
     9     7  2011     9     2     258.1     7.5      1.0    0.0    7.5    0.0      0.0      0.0   -9.90     15.7      9.3     59      0.2      0.2   100     15.9     9.5      60     17.6    0.47      0      0      0      0      0     0.6     0.6      0     0.01      0.2      0.2      0.2   100    34.3     0.010    -9.9    0.000    0.000     100        0.00    0.000    0.000     258.1    258.1    0.47    44.5     195.4      54.0      54.0      33.7      33.7      11.0    0.000     0.000     0.000     0.000     0.000    0.47     0.00    0.00      0   -9.90   -9.00        9.5        9.5        9.5       10.5       11.7       11.7       11.7       11.7       11.7       11.7       11.7       11.7        0.0        0.0        0.0        0.0        0.0        0.0        0.0        0.0        0.0        0.0        0.0        0.0      7.5      14.4      21.2      27.7      34.1    391.85
    10     7  2011    10     2     265.9    20.2      0.0    0.0   19.6    0.7      0.0      0.0   -9.90     17.2     11.5     67      0.2      0.2   100     17.4    11.7      67     16.6    0.50      0      0      0      0      0     0.7     0.7      0     0.01      0.2      0.2      0.2   100    34.3     0.014    -9.9    0.000    0.000     100        0.00    0.000    0.000     265.9    265.9    0.50    55.7     209.1      57.8      57.8      37.6      37.6      11.9    0.000     0.000     0.000     0.000     0.000    0.50     0.00    0.00      0   -9.90   -9.00       17.5        9.5        9.5       10.5       11.7       11.7       11.7       11.7       11.7       11.7       11.7       11.7        0.0        0.0        0.0        0.0        0.0        0.0        0.0        0.0        0.0        0.0        0.0        0.0     20.2      15.8      19.2      27.1      35.0    391.85
    11     7  2011    11     2     259.5     1.8      0.0    0.0    1.8    0.0      0.0      0.0   -9.90     16.4      7.9     48      0.2      0.2   100     16.7     8.2      49     17.5    0.53      0      0      0      0      0     0.8     0.8      0     0.02      0.2      0.2      0.2   100    34.3     0.019    -9.9    0.000    0.000     100        0.00    0.000    0.000     259.5    259.5    0.53    52.6     222.3      61.4      61.4      39.2      39.2      12.6    0.000     0.000     0.000     0.000     0.000    0.53     0.00    0.00      0   -9.90   -9.00        5.4       12.0       10.6       10.5       11.7       11.7       11.7       11.7       11.7       11.7       11.7       11.7        0.0        0.0        0.0        0.0        0.0        0.0        0.0        0.0        0.0        0.0        0.0        0.0      1.8      15.2      21.0      28.0      35.0    391.85
    12     7  2011    12     2     256.1     2.9      0.0    0.0    2.9    0.0      0.0      0.0   -9.90     15.1      6.0     40      0.2      0.2   100     15.4     6.2      41     17.0    0.56      6      0      0      0      0     1.0     1.0      0     0.02      0.2      0.2      0.2   100    34.3     0.025    -9.9    0.000    0.000     100        0.00    0.000    0.000     256.1    256.1    0.56    52.7     235.2      65.0      65.0      40.1      40.1      13.4    0.000     0.000     0.000     0.000     0.000    0.56     0.00    0.00      0   -9.90   -9.00        9.4        9.4        9.5        9.5       11.6       11.7       11.7       11.7       11.7       11.7       11.7       11.7        0.0        0.0        0.0        0.0        0.0        0.0        0.0        0.0        0.0        0.0        0.0        0.0      2.9      14.0      20.0      26.4      32.8    391.85
    13     7  2011    13     2     255.9     3.0      5.2    0.0    3.0    0.0      0.0      0.0   -9.90     16.0      8.1     51      0.3      0.3   100     16.3     8.4      52     17.2    0.59      0      0      0      0      0     1.2     1.2      0     0.02      0.3      0.3      0.3   100    34.3     0.032    -9.9    0.000    0.000     100        0.00    0.000    0.000     255.9    255.9    0.59    56.4     247.7      68.4      68.4      43.3      43.3      14.1    0.000     0.000     0.000     0.000     0.000    0.59     0.00    0.00      0   -9.90   -9.00        9.5        9.5        9.6        9.6       11.0       11.7       11.7       11.7       11.7       11.7       11.7       11.7        0.0        0.0        0.0        0.0        0.0        0.0        0.0        0.0        0.0        0.0        0.0        0.0      3.0      14.8      20.4      27.3      34.3    391.85
    14     7  2011    14     2     254.9     1.9      4.5    0.0    1.9    0.0      0.0      0.0   -9.90     15.9      7.1     44      0.4      0.4   100     16.3     7.4      46     17.0    0.62      1      0      0      0      0     1.4     1.4      0     0.02      0.4      0.4      0.4   100    34.3     0.041    -9.9    0.000    0.000      99        0.00    0.000    0.000     254.9    254.9    0.62    59.2     259.9      71.8      71.8      45.4      45.4      14.8    0.000     0.000     0.000     0.000     0.000    0.62     0.00    0.00      0   -9.90   -9.00        9.5        9.5        9.6        9.6       10.4       11.7       11.7       11.7       11.7       11.7       11.7       11.7        0.0        0.0        0.0        0.0        0.0        0.0        0.0        0.0        0.0        0.0        0.0        0.0      1.9      14.8      20.0      27.0      34.0    391.85
    15     7  2011    15     2     253.8     0.3      4.7    0.0    0.3    0.0      0.0      0.0   -9.90     15.3      5.6     37      0.4      0.4   100     15.8     6.0      38     17.7    0.65     12      0      0      0      0     1.6     1.6      0     0.03      0.4      0.4      0.4   100    34.3     0.050    -9.9    0.000    0.000      99        0.00    0.000    0.000     253.8    253.8    0.65    61.3     271.9      75.1      75.1      46.9      46.9      15.6    0.000     0.000     0.000     0.000     0.000    0.65     0.00    0.00      0   -9.90   -9.00        9.5        9.5        9.5        9.5        9.8       11.7       11.7       11.7       11.7       11.7       11.7       11.7        0.0        0.0        0.0        0.0        0.0        0.0        0.0        0.0        0.0        0.0        0.0        0.0      0.3      14.3      21.4      27.7      34.1    391.85
    16     7  2011    16     2     253.2     1.2      5.3    0.0    1.2    0.0      0.0      0.0   -9.90     15.0      6.6     44      0.5      0.5   100     15.5     7.0      45     16.7    0.67      5      0      0      0      0     1.9     1.9      0     0.03      0.5      0.5      0.5   100    34.3     0.062    -9.9    0.000    0.000      98        0.00    0.000    0.000     253.2    253.2    0.67    63.5     283.6      78.3      78.3      48.5      48.5      16.2    0.000     0.000     0.000     0.000     0.000    0.67     0.00    0.00      0   -9.90   -9.00        9.4        9.4        9.5        9.5        9.6       11.7       11.7       11.7       11.7       11.7       11.7       11.7        0.0        0.0        0.0        0.0        0.0        0.0        0.0        0.0        0.0        0.0        0.0        0.0      1.2      14.1      19.4      26.0      32.7    391.85
    17     7  2011    17     2     253.0     5.1      4.0    0.0    5.1    0.0      0.0      0.0   -9.90     14.8      8.7     59      0.5      0.5   100     15.4     9.3      60     17.5    0.70      0      0      0      0      0     2.2     2.2      0     0.04      0.5      0.5      0.5   100    34.3     0.075    -9.9    0.000    0.000      98        0.00    0.000    0.000     253.0    253.0    0.70    66.0     295.2      81.5      81.5      50.4      50.4      16.9    0.000     0.000     0.000     0.000     0.000    0.70     0.00    0.00      0   -9.90   -9.00        9.4        9.4        9.5        9.5        9.5       11.7       11.7       11.7       11.7       11.7       11.7       11.7        0.0        0.0        0.0        0.0        0.0        0.0        0.0        0.0        0.0        0.0        0.0        0.0      5.1      14.0      21.0      27.2      33.4    391.85
    18     7  2011    18     2     252.8     6.4      3.2    0.0    6.4    0.0      0.0      0.0   -9.90     15.2      9.3     61      0.7      0.7   100     15.9     9.9      62     17.7    0.73      0      0      0      0      0     2.6     2.6      0     0.05      0.7      0.7      0.7   100    34.3     0.090    -9.9    0.000    0.000      98        0.00    0.000    0.000     252.8    252.8    0.73    69.4     306.5      84.6      84.6      53.1      53.1      17.6    0.000     0.000     0.000     0.000     0.000    0.73     0.00    0.00      0   -9.90   -9.00        9.5        9.5        9.5        9.5        9.5       11.4       11.7       11.7       11.7       11.7       11.7       11.7        0.0        0.0        0.0        0.0        0.0        0.0        0.0        0.0        0.0        0.0        0.0        0.0      6.4      14.5      21.4      27.8      34.3    391.85
    19     7  2011    19     2     251.9     6.7      2.5    0.0    6.7    0.0      0.0      0.0   -9.90     15.3      9.2     60      0.8      0.8   100     16.1    10.0      62     16.4    0.75      0      0      0      0      0     3.0     3.0      0     0.05      0.8      0.8      0.8   100    34.3     0.109    -9.9    0.000    0.000      97        0.00    0.000    0.000     251.9    251.9    0.75    72.2     317.7      87.7      87.7      55.3      55.3      18.3    0.000     0.000     0.000     0.000     0.000    0.75     0.00    0.00      0   -9.90   -9.00        9.5        9.5        9.6        9.6        9.6       10.9       11.7       11.7       11.7       11.7       11.7       11.7        0.0        0.0        0.0        0.0        0.0        0.0        0.0        0.0        0.0        0.0        0.0        0.0      6.7      14.6      18.7      25.9      33.1    391.85
    20     7  2011    20     2     251.0     1.9      5.0    0.0    1.9    0.0      0.0      0.0   -9.90     15.3      6.9     45      0.9      0.9   100     16.2     7.9      49     17.6    0.78      1      0      0      0      0     3.6     3.6      0     0.06      0.9      0.9      0.9   100    34.3     0.130    -9.9    0.000    0.000      97        0.00    0.000    0.000     251.0    251.0    0.78    74.8     328.7      90.8      90.8      57.5      57.5      18.9    0.000     0.000     0.000     0.000     0.000    0.78     0.00    0.00      0   -9.90   -9.00        9.5        9.5        9.6        9.6        9.6       10.4       11.7       11.7       11.7       11.7       11.7       11.7        0.0        0.0        0.0        0.0        0.0        0.0        0.0        0.0        0.0        0.0        0.0        0.0      1.9      14.8      21.2      27.9      34.6    391.85
    21     7  2011    21     2     250.3     8.5      1.4    0.0    8.5    0.0      0.0      0.0   -9.90     15.3      9.4     62      1.1      1.1   100     16.4    10.6      64     17.1    0.81      0      0      0      0      0     4.2     4.2      0     0.07      1.1      1.1      1.1   100    34.3     0.156    -9.9    0.000    0.000      97        0.00    0.000    0.000     250.3    250.3    0.81    77.1     339.6      93.8      93.8      59.7      59.7      19.5    0.000     0.000     0.000     0.000     0.000    0.81     0.00    0.00      0   -9.90   -9.00        9.5        9.5        9.6        9.6        9.6       10.0       11.7       11.7       11.7       11.7       11.7       11.7        0.0        0.0        0.0        0.0        0.0        0.0        0.0        0.0        0.0        0.0        0.0        0.0      8.5      15.0      20.2      27.3      34.4    391.85
    22     7  2011    22     2     250.8     2.7      7.0    0.0    2.7    0.0      0.0      0.0   -9.90     16.2      7.8     48      1.4      1.4   100     17.6     9.2      52     17.0    0.83      0      0      0      0      0     5.0     5.0      0     0.09      1.4      1.4      1.4   100    34.3     0.186    -9.9    0.000    0.000      97        0.00    0.000    0.000     250.8    250.8    0.83    80.2     350.3      96.7      96.7      63.5      63.5      20.2    0.000     0.000     0.000     0.000     0.000    0.83     0.00    0.00      0   -9.90   -9.00        9.7        9.7        9.7        9.7        9.7        9.8       11.7       11.7       11.7       11.7       11.7       11.7        0.0        0.0        0.0        0.0        0.0        0.0        0.0        0.0        0.0        0.0        0.0        0.0      2.7      16.1      19.9      27.9      35.8    391.85
    23     7  2011    23     2     250.0     7.3      2.7    0.0    7.3    0.0      0.0      0.0   -9.90     15.2      9.3     61      1.6      1.6   100     16.8    10.8      65     16.8    0.86      0      0      0      0      0     5.9     5.9      0     0.10      1.6      1.6      1.6   100    34.3     0.220    -9.9    0.000    0.000      97        0.00    0.000    0.000     250.0    250.0    0.86    81.9     360.9      99.7      99.7      64.1      64.1      20.8    0.000     0.000     0.000     0.000     0.000    0.86     0.00    0.00      0   -9.90   -9.00        9.6        9.6        9.6        9.6        9.6        9.7       11.7       11.7       11.7       11.7       11.7       11.7        0.0        0.0        0.0        0.0        0.0        0.0        0.0        0.0        0.0        0.0        0.0        0.0      7.3      15.3      19.6      27.1      34.5    391.85
    24     7  2011    24     2     248.6     6.4      2.5    0.0    6.4    0.0      0.0      0.0   -9.90     13.6      8.7     64      1.7      1.7   100     15.2    10.3      68     17.1    0.88      0      0      0      0      0     6.9     6.9      0     0.12      1.7      1.7      1.7   100    34.3     0.261    -9.9    0.000    0.000      97        0.00    0.000    0.000     248.6    248.6    0.88    83.0     371.4     102.5     102.5      63.3      63.3      21.4    0.000     0.000     0.000     0.000     0.000    0.88     0.00    0.00      0   -9.90   -9.00        9.4        9.4        9.5        9.5        9.5        9.5       11.7       11.7       11.7       11.7       11.7       11.7        0.0        0.0        0.0        0.0        0.0        0.0        0.0        0.0        0.0        0.0        0.0        0.0      6.4      13.9      20.2      26.5      32.8    391.85
    25     7  2011    25     2     254.9    18.9      0.0    0.0   18.3    0.5      0.0      0.0   -9.90     13.9     10.0     72      2.0      2.0   100     16.0    12.0      75     16.9    0.91      0      0      0      0      0     8.2     8.2      0     0.14      2.0      2.0      2.0   100    34.3     0.309    -9.9    0.000    0.000      97        0.00    0.000    0.000     254.9    254.9    0.91    91.7     381.7     105.4     105.4      66.4      66.4      22.0    0.000     0.000     0.000     0.000     0.000    0.91     0.00    0.00      0   -9.90   -9.00       15.9        9.4        9.5        9.5        9.5        9.5       11.7       11.7       11.7       11.7       11.7       11.7        0.0        0.0        0.0        0.0        0.0        0.0        0.0        0.0        0.0        0.0        0.0        0.0     18.9      14.6      19.8      26.7      33.6    391.85
    26     7  2011    26     2     247.7     2.6      0.0    0.0    2.6    0.0      0.0      0.0   -9.90     12.4      7.6     61      2.2      2.2   100     14.6     9.8      67     17.6    0.93      0      0      0      0      0     9.6     9.6      0     0.16      2.2      2.2      2.2   100    34.3     0.365    -9.9    0.000    0.000      97        0.00    0.000    0.000     247.7    247.7    0.93    87.3     392.0     108.2     108.2      65.8      65.8      22.6    0.000     0.000     0.000     0.000     0.000    0.93     0.00    0.00      0   -9.90   -9.00        4.8       11.8        9.6        9.5        9.5        9.5       11.7       11.7       11.7       11.7       11.7       11.7        0.0        0.0        0.0        0.0        0.0        0.0        0.0        0.0        0.0        0.0        0.0        0.0      2.6      13.4      21.3      27.0      32.8    391.85
    27     7  2011    27     2     248.2     7.0      4.7    0.0    7.0    0.0      0.0      0.0   -9.90     13.3      8.4     63      2.8      2.8   100     16.1    11.2      69     16.3    0.95      0      0      0      0      0    11.4    11.4      0     0.19      2.8      2.8      2.8   100    34.3     0.431    -9.9    0.000    0.000      97        0.00    0.000    0.000     248.2    248.2    0.95    91.5     402.2     111.0     111.0      70.4      70.4      23.2    0.000     0.000     0.000     0.000     0.000    0.95     0.00    0.00      0   -9.90   -9.00        9.5        9.5        9.6        9.6        9.6        9.6       11.1       11.7       11.7       11.7       11.7       11.7        0.0        0.0        0.0        0.0        0.0        0.0        0.0        0.0        0.0        0.0        0.0        0.0      7.0      14.8      18.6      25.9      33.3    391.85
    28     7  2011    28     2     246.6    10.0      0.0    0.0   10.0    0.0      0.0      0.0   -9.90     12.0      8.6     72      3.1      3.1   100     15.1    11.7      78     17.1    0.98      0      0      0      0      0    13.4    13.4      0     0.22      3.1      3.1      3.1   100    34.3     0.507    -9.9    0.000    0.000      97        0.00    0.000    0.000     246.6    246.6    0.98    92.5     412.2     113.8     113.8      70.2      70.2      23.8    0.000     0.000     0.000     0.000     0.000    0.98     0.00    0.00      0   -9.90   -9.00        8.1        9.3        9.6        9.6        9.6        9.6       11.1       11.7       11.7       11.7       11.7       11.7        0.0        0.0        0.0        0.0        0.0        0.0        0.0        0.0        0.0        0.0        0.0        0.0     10.0      13.9      20.2      26.5      32.8    391.85
    29     7  2011    29     2     248.8    14.5      0.0    0.0   14.5    0.1      0.0      0.0   -9.90     11.5      8.7     76      3.6      3.6   100     15.0    12.2      81     17.1    1.00      0      0      0      0      0    15.8    15.8      0     0.26      3.6      3.6      3.6   100    34.3     0.596    -9.9    0.000    0.000      96        0.00    0.000    0.000     248.8    248.8    1.00    97.3     422.2     116.6     116.6      71.9      71.9      24.4    0.000     0.000     0.000     0.000     0.000    1.00     0.00    0.00      0   -9.90   -9.00       11.2        8.8        9.6        9.6        9.6        9.6       11.1       11.7       11.7       11.7       11.7       11.7        0.0        0.0        0.0        0.0        0.0        0.0        0.0        0.0        0.0        0.0        0.0        0.0     14.5      13.8      20.2      26.5      32.8    391.85
    30     7  2011    30     2     245.9     5.8      3.7    0.0    5.8    0.0      0.0      0.0   -9.90     11.3      8.0     71      4.3      4.3   100     15.6    12.3      79     17.2    1.02      0      0      0      0      0    18.6    18.6      0     0.30      4.3      4.3      4.3   100    34.3     0.699    -9.9    0.000    0.000      96        0.00    0.000    0.000     245.9    245.9    1.02    97.7     432.0     119.3     119.3      74.7      74.7      25.0    0.000     0.000     0.000     0.000     0.000    1.02     0.00    0.00      0   -9.90   -9.00        9.5        9.5        9.5        9.5        9.5        9.5       10.1       11.7       11.7       11.7       11.7       11.7        0.0        0.0        0.0        0.0        0.0        0.0        0.0        0.0        0.0        0.0        0.0        0.0      5.8      14.4      20.4      27.0      33.6    391.85
    31     7  2011    31     2     245.5     7.4      5.5    0.0    7.4    0.0      0.0      0.0   -9.90     10.9      8.1     74      5.2      5.2   100     16.1    13.3      83     17.5    1.05      0      0      0      0      0    22.0    22.0      0     0.35      5.2      5.2      5.2   100    34.3     0.818    -9.9    0.000    0.000      96        0.00    0.000    0.000     245.5    245.5    1.05   100.0     441.8     122.0     122.0      77.5      77.5      25.6    0.000     0.000     0.000     0.000     0.000    1.05     0.00    0.00      0   -9.90   -9.00        9.5        9.5        9.6        9.6        9.6        9.6        9.7       11.7       11.7       11.7       11.7       11.7        0.0        0.0        0.0        0.0        0.0        0.0        0.0        0.0        0.0        0.0        0.0        0.0      7.4      14.9      20.9      27.8      34.6    391.85
     1     8  2011    32     2     245.3     8.4      5.1    0.0    8.4    0.0      0.0      0.0   -9.90     10.1      7.7     76      6.0      6.0   100     16.1    13.7      85     16.6    1.07      0      0      0      0      0    25.9    25.9      0     0.40      6.0      6.0      6.0   100    34.3     0.955    -9.9    0.000    0.000      97        0.00    0.000    0.000     245.3    245.3    1.07   102.0     451.5     124.7     124.7      79.3      79.3      26.1    0.000     0.000     0.000     0.000     0.000    1.07     0.00    0.00      0   -9.90   -9.00        9.5        9.5        9.6        9.6        9.6        9.6        9.6       11.7       11.7       11.7       11.7       11.7        0.0        0.0        0.0        0.0        0.0        0.0        0.0        0.0        0.0        0.0        0.0        0.0      8.4      14.9      19.3      26.6      33.9    391.85
     2     8  2011    33     2     244.3     1.2      9.2    0.0    1.2    0.0      0.0      0.0   -9.90      8.7      5.0     57      6.5      6.5   100     15.2    11.4      75     17.0    1.09      4      0      0      0      0    30.4    30.4      0     0.46      6.5      6.5      6.5   100    34.3     1.112    -9.9    0.000    0.000      96        0.00    0.000    0.000     244.3    244.3    1.09   103.2     461.2     127.3     127.3      79.1      79.1      26.7    0.000     0.000     0.000     0.000     0.000    1.09     0.00    0.00      0   -9.90   -9.00        9.4        9.4        9.5        9.5        9.5        9.5        9.5       11.7       11.7       11.7       11.7       11.7        0.0        0.0        0.0        0.0        0.0        0.0        0.0        0.0        0.0        0.0        0.0        0.0      1.2      14.1      20.0      26.5      33.0    391.85
     3     8  2011    34     2     246.0     7.1      9.8    0.0    7.1    0.0      0.0      0.0   -9.90      8.7      7.0     81      8.3      8.3   100     16.9    15.3      90     16.6    1.12      0      0      0      0      0    35.8    35.8      0     0.52      8.3      8.3      8.3   100    34.3     1.292    -9.9    0.000    0.000      96        0.00    0.000    0.000     246.0    246.0    1.12   107.7     470.7     130.0     130.0      84.8      84.8      27.3    0.000     0.000     0.000     0.000     0.000    1.12     0.00    0.00      0   -9.90   -9.00        9.6        9.6        9.7        9.7        9.7        9.7        9.7       11.5       11.7       11.7       11.7       11.7        0.0        0.0        0.0        0.0        0.0        0.0        0.0        0.0        0.0        0.0        0.0        0.0      7.1      15.8      19.1      27.1      35.1    391.85
     4     8  2011    35     2     244.3     1.3     10.5    0.0    1.3    0.0      0.0      0.0   -9.90      7.1      4.6     64      8.9      8.9   100     16.0    13.4      84     17.2    1.14      4      0      0      0      0    42.0    42.0      0     0.59      8.9      8.9      8.9   100    34.3     1.495    -9.9    0.000    0.000      96        0.00    0.000    0.000     244.3    244.3    1.14   109.1     480.2     132.6     132.6      84.5      84.5      27.8    0.000     0.000     0.000     0.000     0.000    1.14     0.00    0.00      0   -9.90   -9.00        9.5        9.5        9.6        9.6        9.6        9.6        9.6       11.2       11.7       11.7       11.7       11.7        0.0        0.0        0.0        0.0        0.0        0.0        0.0        0.0        0.0        0.0        0.0        0.0      1.3      15.0      20.5      27.5      34.6    391.85
     5     8  2011    36     2     242.1     1.8      9.6    0.0    1.8    0.0      0.0      0.0   -9.90      5.5      4.2     76      9.4      9.4   100     14.9    13.6      91     17.5    1.16      1      0      0      0      0    49.4    49.4      0     0.67      9.4      9.4      9.4   100    34.3     1.725    -9.9    0.000    0.000      96        0.00    0.000    0.000     242.1    242.1    1.16   110.2     489.6     135.2     135.2      83.7      83.7      28.4    0.000     0.000     0.000     0.000     0.000    1.16     0.00    0.00      0   -9.90   -9.00        9.4        9.4        9.5        9.5        9.5        9.5        9.5       10.7       11.7       11.7       11.7       11.7        0.0        0.0        0.0        0.0        0.0        0.0        0.0        0.0        0.0        0.0        0.0        0.0      1.8      14.0      20.9      27.2      33.4    391.85
     6     8  2011    37     2     241.7     0.8     12.7    0.0    0.8    0.0      0.0      0.0   -9.90      4.8      3.4     72     10.5     10.5   100     15.3    14.0      91     16.7    1.18      8      0      0      0      0    55.8    55.8      0     0.73     10.5     10.5     10.5   100    34.3     1.975    -9.9    0.000    0.000      96        0.00    0.000    0.000     241.7    241.7    1.18   112.6     499.0     137.8     137.8      86.4      86.4      28.9    0.000     0.000     0.000     0.000     0.000    1.18     0.00    0.00      0   -9.90   -9.00        9.5        9.5        9.5        9.5        9.5        9.5        9.5       10.2       11.7       11.7       11.7       11.7        0.0        0.0        0.0        0.0        0.0        0.0        0.0        0.0        0.0        0.0        0.0        0.0      0.8      14.4      19.4      26.3      33.2    391.85
     7     8  2011    38     2     240.0     3.7      9.0    0.0    3.7    0.0      0.0      0.0   -9.90      3.7      3.7    100     10.7     10.7   100     14.4    14.4     100     17.4    1.20      0      0      0      0      0    61.8    61.8      0     0.78     10.7     10.7     10.7   100    34.3     2.244    -9.9    0.000    0.000      97        0.00    0.000    0.000     240.0    240.0    1.20   113.6     508.3     140.3     140.3      86.0      86.0      29.5    0.000     0.000     0.000     0.000     0.000    1.20     0.00    0.00      0   -9.90   -9.00        9.4        9.4        9.4        9.4        9.4        9.4        9.4        9.8       11.7       11.7       11.7       11.7        0.0        0.0        0.0        0.0        0.0        0.0        0.0        0.0        0.0        0.0        0.0        0.0      3.7      13.6      20.8      26.8      32.9    391.85
     8     8  2011    39     2     241.5     3.9     13.5    0.0    3.9    0.0      0.0      0.0   -9.90      3.4      3.4    100     12.5     12.5   100     16.0    16.0     100     17.7    1.23      0      0      0      0      0    66.9    66.9      0     0.83     12.5     12.5     12.5   100    34.3     2.528    -9.9    0.000    0.000      97        0.00    0.000    0.000     241.5    241.5    1.23   117.3     517.5     142.9     142.9      91.4      91.4      30.0    0.000     0.000     0.000     0.000     0.000    1.23     0.00    0.00      0   -9.90   -9.00        9.6        9.6        9.6        9.6        9.6        9.6        9.6        9.7       11.7       11.7       11.7       11.7        0.0        0.0        0.0        0.0        0.0        0.0        0.0        0.0        0.0        0.0        0.0        0.0      3.9      15.1      21.4      28.3      35.3    391.85
     9     8  2011    40     2     240.6    13.2      1.4    0.0   13.1    0.1      0.0      0.0   -9.90      2.8      2.8    100     12.6     12.6   100     15.4    15.4     100     16.9    1.25      0      0      0      0      0    71.2    71.2      0     0.86     12.6     12.6     12.6   100    34.3     2.823    -9.9    0.000    0.000      97        0.00    0.000    0.000     240.6    240.6    1.25   118.6     526.7     145.4     145.4      91.6      91.6      30.6    0.000     0.000     0.000     0.000     0.000    1.25     0.00    0.00      0   -9.90   -9.00        9.5        9.5        9.5        9.5        9.5        9.5        9.5        9.6       11.7       11.7       11.7       11.7        0.0        0.0        0.0        0.0        0.0        0.0        0.0        0.0        0.0        0.0        0.0        0.0     13.2      14.6      19.8      26.7      33.7    391.85
    10     8  2011    41     2     238.8     1.2     10.7    0.0    1.2    0.0      0.0      0.0   -9.90      2.2      2.0     92     11.8     11.8   100     13.9    13.8      99     17.4    1.27      4      0      0      0      0    74.7    74.7      0     0.89     11.8     11.8     11.8   100    34.3     3.128    -9.9    0.000    0.000      97        0.00    0.000    0.000     238.8    238.8    1.27   118.8     535.8     147.9     147.9      89.7      89.7      31.1    0.000     0.000     0.000     0.000     0.000    1.27     0.00    0.00      0   -9.90   -9.00        9.4        9.4        9.4        9.4        9.4        9.4        9.4        9.4       11.7       11.7       11.7       11.7        0.0        0.0        0.0        0.0        0.0        0.0        0.0        0.0        0.0        0.0        0.0        0.0      1.2      13.3      20.8      26.6      32.4    391.85
    11     8  2011    42     2     239.6     2.4     13.0    0.0    2.4    0.0      0.0      0.0   -9.90      1.9      1.9    100     12.7     12.7   100     14.6    14.6     100     17.0    1.29      0      0      0      0      0    77.8    77.8      0     0.91     12.7     12.7     12.7   100    34.3     3.441    -9.9    0.000    0.000      97        0.00    0.000    0.000     239.6    239.6    1.29   121.6     544.9     150.4     150.4      92.9      92.9      31.6    0.000     0.000     0.000     0.000     0.000    1.29     0.00    0.00      0   -9.90   -9.00        9.4        9.4        9.5        9.5        9.5        9.5        9.5        9.5       11.7       11.7       11.7       11.7        0.0        0.0        0.0        0.0        0.0        0.0        0.0        0.0        0.0        0.0        0.0        0.0      2.4      13.9      20.1      26.5      32.9    391.85
    12     8  2011    43     2     239.0     9.1      4.5    0.0    9.1    0.0      0.0      0.0   -9.90      1.6      1.6    100     12.7     12.7   100     14.3    14.3     100     17.4    1.31      0      0      0      0      0    80.4    80.4      0     0.93     12.7     12.7     12.7   100    34.3     3.760    -9.9    0.000    0.000      97        0.00    0.000    0.000     239.0    239.0    1.31   123.5     553.9     152.9     152.9      93.6      93.6      32.2    0.000     0.000     0.000     0.000     0.000    1.31     0.00    0.00      0   -9.90   -9.00        9.4        9.4        9.4        9.4        9.4        9.4        9.4        9.4       11.6       11.7       11.7       11.7        0.0        0.0        0.0        0.0        0.0        0.0        0.0        0.0        0.0        0.0        0.0        0.0      9.1      13.6      20.8      26.8      32.9    391.85
    13     8  2011    44     2     240.0     2.3     14.4    0.0    2.3    0.0      0.0      0.0   -9.90      1.5      1.5    100     14.1     14.1   100     15.6    15.6     100     17.1    1.33      0      0      0      0      0    82.7    82.7      0     0.95     14.1     14.1     14.1   100    34.3     4.085    -9.9    0.000    0.000      97        0.00    0.000    0.000     240.0    240.0    1.33   127.6     562.8     155.4     155.4      98.7      98.7      32.7    0.000     0.000     0.000     0.000     0.000    1.33     0.00    0.00      0   -9.90   -9.00        9.5        9.5        9.6        9.6        9.6        9.6        9.6        9.6       11.3       11.7       11.7       11.7        0.0        0.0        0.0        0.0        0.0        0.0        0.0        0.0        0.0        0.0        0.0        0.0      2.3      14.8      20.1      27.2      34.3    391.85
    14     8  2011    45     2     239.0     5.3      9.2    0.0    5.3    0.0      0.0      0.0   -9.90      1.3      1.3    100     14.2     14.2   100     15.5    15.5     100     16.2    1.35      0      0      0      0      0    84.6    84.6      0     0.96     14.2     14.2     14.2   100    34.3     4.415    -9.9    0.000    0.000      98        0.00    0.000    0.000     239.0    239.0    1.35   129.7     571.7     157.8     157.8     100.1     100.1      33.2    0.000     0.000     0.000     0.000     0.000    1.35     0.00    0.00      0   -9.90   -9.00        9.5        9.5        9.6        9.6        9.6        9.6        9.6        9.6       11.0       11.7       11.7       11.7        0.0        0.0        0.0        0.0        0.0        0.0        0.0        0.0        0.0        0.0        0.0        0.0      5.3      14.8      18.5      25.9      33.4    391.85
    15     8  2011    46     2     237.3     7.6      5.8    0.0    7.6    0.0      0.0      0.0   -9.90      1.1      1.1    100     14.0     14.0   100     15.0    15.0     100     17.0    1.37      0      0      0      0      0    86.2    86.2      0     0.97     14.0     14.0     14.0   100    34.3     4.748    -9.9    0.000    0.000      98        0.00    0.000    0.000     237.3    237.3    1.37   131.1     580.6     160.3     160.3     100.4     100.4      33.8    0.000     0.000     0.000     0.000     0.000    1.37     0.00    0.00      0   -9.90   -9.00        9.5        9.5        9.5        9.5        9.5        9.5        9.5        9.5       10.5       11.7       11.7       11.7        0.0        0.0        0.0        0.0        0.0        0.0        0.0        0.0        0.0        0.0        0.0        0.0      7.6      14.4      20.0      26.8      33.6    391.85
    16     8  2011    47     2     238.2     7.5      9.6    0.0    7.5    0.0      0.0      0.0   -9.90      1.0      1.0    100     15.3     15.3   100     16.3    16.3     100     16.8    1.40      0      0      0      0      0    87.6    87.6      0     0.98     15.3     15.3     15.3   100    34.3     5.085    -9.9    0.000    0.000      98        0.00    0.000    0.000     238.2    238.2    1.40   134.6     589.4     162.7     162.7     105.5     105.5      34.3    0.000     0.000     0.000     0.000     0.000    1.40     0.00    0.00      0   -9.90   -9.00        9.6        9.6        9.7        9.7        9.7        9.7        9.7        9.7       10.2       11.7       11.7       11.7        0.0        0.0        0.0        0.0        0.0        0.0        0.0        0.0        0.0        0.0        0.0        0.0      7.5      15.6      19.7      27.4      35.2    391.85
    17     8  2011    48     2     236.3     4.9      8.6    0.0    4.9    0.0      0.0      0.0   -9.90      0.8      0.8    100     14.6     14.6   100     15.4    15.4     100     17.2    1.42      0      0      0      0      0    88.7    88.7      0     0.99     14.6     14.6     14.6   100    34.3     5.424    -9.9    0.000    0.000      98        0.00    0.000    0.000     236.3    236.3    1.42   135.2     598.2     165.1     165.1     104.5     104.5      34.8    0.000     0.000     0.000     0.000     0.000    1.42     0.00    0.00      0   -9.90   -9.00        9.5        9.5        9.6        9.6        9.6        9.6        9.6        9.6        9.9       11.7       11.7       11.7        0.0        0.0        0.0        0.0        0.0        0.0        0.0        0.0        0.0        0.0        0.0        0.0      4.9      14.7      20.4      27.4      34.3    391.85
    18     8  2011    49     2     236.3     9.5      6.4    0.0    9.5    0.0      0.0      0.0   -9.90      0.8      0.8    100     15.0     15.0   100     15.8    15.8     100     16.7    1.44      0      0      0      0      0    89.7    89.7      0     1.00     15.0     15.0     15.0   100    34.3     5.766    -9.9    0.000    0.000      98        0.00    0.000    0.000     236.3    236.3    1.44   137.5     606.9     167.5     167.5     107.1     107.1      35.3    0.000     0.000     0.000     0.000     0.000    1.44     0.00    0.00      0   -9.90   -9.00        9.6        9.6        9.6        9.6        9.6        9.6        9.6        9.6        9.7       11.7       11.7       11.7        0.0        0.0        0.0        0.0        0.0        0.0        0.0        0.0        0.0        0.0        0.0        0.0      9.5      15.1      19.4      26.9      34.4    391.85
    19     8  2011    50     2     234.3     2.9      9.7    0.0    2.9    0.0      0.0      0.0   -9.90      0.6      0.6    100     14.0     14.0   100     14.6    14.6     100     17.4    1.46      0      0      0      0      0    90.5    90.5      0     1.00     14.0     14.0     14.0   100    34.3     6.110    -9.9    0.000    0.000      98        0.00    0.000    0.000     234.3    234.3    1.46   137.7     615.5     169.9     169.9     105.1     105.1      35.8    0.000     0.000     0.000     0.000     0.000    1.46     0.00    0.00      0   -9.90   -9.00        9.4        9.4        9.5        9.5        9.5        9.5        9.5        9.5        9.6       11.7       11.7       11.7        0.0        0.0        0.0        0.0        0.0        0.0        0.0        0.0        0.0        0.0        0.0        0.0      2.9      13.9      20.8      27.1      33.5    391.85
    20     8  2011    51     2     234.0     1.9     12.2    0.0    1.9    0.0      0.0      0.0   -9.90      0.5      0.5    100     13.9     13.9   100     14.5    14.5     100     16.8    1.48      1      0      0      0      0    91.2    91.2      0     1.01     13.9     13.9     13.9   100    34.3     6.455    -9.9    0.000    0.000      98        0.00    0.000    0.000     234.0    234.0    1.48   139.3     624.2     172.3     172.3     106.3     106.3      36.3    0.000     0.000     0.000     0.000     0.000    1.48     0.00    0.00      0   -9.90   -9.00        9.4        9.4        9.5        9.5        9.5        9.5        9.5        9.5        9.5       11.7       11.7       11.7        0.0        0.0        0.0        0.0        0.0        0.0        0.0        0.0        0.0        0.0        0.0        0.0      1.9      13.8      19.5      26.1      32.6    391.85
    21     8  2011    52     2     236.0     3.5     14.3    0.0    3.5    0.0      0.0      0.0   -9.90      0.5      0.5    100     15.3     15.3   100     15.8    15.8     100     17.0    1.50      0      0      0      0      0    91.8    91.8      0     1.01     15.3     15.3     15.3   100    34.3     6.801    -9.9    0.000    0.000      98        0.00    0.000    0.000     236.0    236.0    1.50   143.2     632.8     174.7     174.7     111.9     111.9      36.8    0.000     0.000     0.000     0.000     0.000    1.50     0.00    0.00      0   -9.90   -9.00        9.6        9.6        9.6        9.6        9.6        9.6        9.6        9.6        9.6       11.7       11.7       11.7        0.0        0.0        0.0        0.0        0.0        0.0        0.0        0.0        0.0        0.0        0.0        0.0      3.5      15.1      20.0      27.4      34.8    391.85
    22     8  2011    53     2     235.2     7.7      6.8    0.0    7.7    0.0      0.0      0.0   -9.90      0.5      0.5    100     14.8     14.8   100     15.2    15.2     100     16.3    1.52      0      0      0      0      0    92.3    92.3      0     1.01     14.8     14.8     14.8   100    34.3     7.149    -9.9    0.000    0.000      98        0.00    0.000    0.000     235.2    235.2    1.52   144.4     641.3     177.0     177.0     111.7     111.7      37.3    0.000     0.000     0.000     0.000     0.000    1.52     0.00    0.00      0   -9.90   -9.00        9.5        9.5        9.5        9.5        9.5        9.5        9.5        9.5        9.6       11.7       11.7       11.7        0.0        0.0        0.0        0.0        0.0        0.0        0.0        0.0        0.0        0.0        0.0        0.0      7.7      14.6      18.7      26.0      33.4    391.85
    23     8  2011    54     2     235.8     3.5     12.6    0.0    3.5    0.0      0.0      0.0   -9.90      0.4      0.4    100     15.2     15.2   100     15.6    15.6     100     16.0    1.54      0      0      0      0      0    92.7    92.7      0     1.02     15.2     15.2     15.2   100    34.3     7.497    -9.9    0.000    0.000      98        0.00    0.000    0.000     235.8    235.8    1.54   146.8     649.8     179.4     179.4     114.2     114.2      37.8    0.000     0.000     0.000     0.000     0.000    1.54     0.00    0.00      0   -9.90   -9.00        9.5        9.5        9.6        9.6        9.6        9.6        9.6        9.6        9.6       11.7       11.7       11.7        0.0        0.0        0.0        0.0        0.0        0.0        0.0        0.0        0.0        0.0        0.0        0.0      3.5      14.9      18.0      25.8      33.6    391.85
    24     8  2011    55     2     235.7     4.5     11.1    0.0    4.5    0.0      0.0      0.0   -9.90      0.4      0.4    100     15.3     15.3   100     15.7    15.7     100     17.3    1.56      0      0      0      0      0    93.0    93.0      0     1.02     15.3     15.3     15.3   100    34.3     7.847    -9.9    0.000    0.000      98        0.00    0.000    0.000     235.7    235.7    1.56   149.0     658.3     181.7     181.7     115.9     115.9      38.3    0.000     0.000     0.000     0.000     0.000    1.56     0.00    0.00      0   -9.90   -9.00        9.5        9.5        9.6        9.6        9.6        9.6        9.6        9.6        9.6       11.6       11.7       11.7        0.0        0.0        0.0        0.0        0.0        0.0        0.0        0.0        0.0        0.0        0.0        0.0      4.5      15.0      20.5      27.7      34.9    391.85
    25     8  2011    56     3     233.7     7.2      5.5    0.0    7.2    0.0      0.0      0.0   -9.90      0.3      0.3    100     14.4     14.4   100     14.8    14.8     100     17.0    1.58      0      0      0      0      0    93.3    93.3      0     1.02     14.4     14.4     14.4   100    34.3     8.197    -9.9    0.000    0.000      98        0.00    0.000    0.000     233.7    233.7    1.58   149.8     666.7     184.0     184.0     114.5     114.5      38.8    0.000     0.000     0.000     0.000     0.000    1.58     0.00    0.00      0   -9.90   -9.00        9.4        9.4        9.5        9.5        9.5        9.5        9.5        9.5        9.5       11.4       11.7       11.7        0.0        0.0        0.0        0.0        0.0        0.0        0.0        0.0        0.0        0.0        0.0        0.0      7.2      14.1      20.0      26.7      33.4    391.85
    26     8  2011    57     3     232.9     7.6      6.4    0.0    7.6    0.0      0.0      0.0   -9.90      0.3      0.3    100     14.5     14.5   100     14.8    14.8     100     16.7    1.60      0      0      0      0      0    93.6    93.6      0     1.02     14.5     14.5     14.5   100    34.3     8.547    -9.9    0.000    0.000      98        0.00    0.000    0.000     232.9    232.9    1.60   152.0     675.1     186.4     186.4     116.1     116.1      39.3    0.000     0.000     0.000     0.000     0.000    1.60     0.00    0.00      0   -9.90   -9.00        9.5        9.5        9.5        9.5        9.5        9.5        9.5        9.5        9.5       11.0       11.7       11.7        0.0        0.0        0.0        0.0        0.0        0.0        0.0        0.0        0.0        0.0        0.0        0.0      7.6      14.2      19.4      26.3      33.2    391.85
    27     8  2011    58     3     231.7     1.3     12.3    0.0    1.3    0.0      0.0      0.0   -9.90      0.3      0.3    100     14.4     14.4   100     14.7    14.7     100     17.0    1.62      4      0      0      0      0    93.7    93.7      0     1.02     14.4     14.4     14.4   100    34.3     8.898     1.5    0.134    0.149      98        0.02    0.000    0.000     231.7    231.7    1.62   153.8     683.5     188.7     188.7     117.4     117.4      39.8    0.000     0.000     0.000     0.000     0.000    1.62     0.00    0.00      0   -9.90   -9.00        9.4        9.4        9.5        9.5        9.5        9.5        9.5        9.5        9.5       10.6       11.7       11.7        0.0        0.0        0.0        0.0        0.0        0.0        0.0        0.0        0.0        0.0        0.0        0.0      1.3      14.1      20.0      26.8      33.5    391.85
    28     8  2011    59     3     232.1    15.4      0.0    0.0   15.2    0.2      0.0      0.0   -9.90      0.3      0.3    100     14.5     14.5   100     14.8    14.8     100     17.4    1.64      0      0      0      0      0    93.9    93.9      0     1.02     14.5     14.5     14.5   100    34.3     9.250     1.8    0.171    0.190      98        0.02    0.000    0.000     232.1    232.1    1.64   156.2     691.8     191.0     191.0     119.0     119.0      40.3    0.000     0.000     0.000     0.000     0.000    1.64     0.00    0.00      0   -9.90   -9.00       21.7        6.6        6.7        7.3        9.5        9.5        9.5        9.5        9.5       10.6       11.7       11.7        0.0        0.0        0.0        0.0        0.0        0.0        0.0        0.0        0.0        0.0        0.0        0.0     15.4      14.2      20.7      27.3      33.9    391.85
    29     8  2011    60     3     227.9     7.4      1.6    0.0    7.4    0.0      0.0      0.0   -9.90      0.2      0.2    100     12.9     12.9   100     13.2    13.2     100     17.8    1.66      0      0      0      0      0    94.0    94.0      0     1.02     12.9     12.9     12.9   100    34.3     9.601     2.3    0.217    0.241      98        0.03    0.000    0.000     227.9    227.9    1.66   154.9     700.1     193.3     193.3     114.9     114.9      40.8    0.000     0.000     0.000     0.000     0.000    1.66     0.00    0.00      0   -9.90   -9.00        9.3        9.3        9.3        9.3        9.3        9.3        9.3        9.3        9.3       10.1       11.7       11.7        0.0        0.0        0.0        0.0        0.0        0.0        0.0        0.0        0.0        0.0        0.0        0.0      7.4      12.6      21.6      27.0      32.3    391.85
    30     8  2011    61     3     230.5     1.2     16.7    0.0    1.2    0.0      0.0      0.0   -9.90      0.3      0.3    100     15.0     15.0   100     15.3    15.3     100     16.5    1.68      6      0      0      0      0    94.0    94.0      0     1.03     15.0     15.0     15.0   100    34.3     9.953     2.8    0.275    0.305      98        0.04    0.000    0.000     230.5    230.5    1.68   159.8     708.4     195.5     195.5     123.5     123.5      41.3    0.000     0.000     0.000     0.000     0.000    1.68     0.00    0.00      0   -9.90   -9.00        9.5        9.5        9.6        9.6        9.6        9.6        9.6        9.6        9.6        9.8       11.7       11.7        0.0        0.0        0.0        0.0        0.0        0.0        0.0        0.0        0.0        0.0        0.0        0.0      1.2      14.6      19.0      26.4      33.8    391.85
    31     8  2011    62     3     228.3     3.2      8.6    0.0    3.2    0.0      0.0      0.0   -9.90      0.3      0.3    100     13.8     13.8   100     14.1    14.1     100     17.1    1.70     -9      0      0      0      0    93.4    93.4      0     1.01     13.8     13.8     13.8   100    34.3    10.300     3.4    0.346    0.384      98        0.05    0.000    0.000     228.3    228.3    1.70   159.7     716.6     197.8     197.8     121.2     121.2      41.8    0.000     0.000     0.000     0.000     0.000    1.70     0.00    0.00      0   -9.90   -9.00        9.4        9.4        9.4        9.4        9.4        9.4        9.4        9.4        9.4        9.6       11.7       11.7        0.0        0.0        0.0        0.0        0.0        0.0        0.0        0.0        0.0        0.0        0.0        0.0      3.2      13.6      20.1      26.5      32.9    391.85
     1     9  2011    63     3     231.1    10.1      8.4    0.0   10.1    0.0      0.0      0.0   -9.90      0.3      0.3    100     15.4     15.4   100     15.8    15.8     100     16.8    1.71     -9      0      0      0      0    93.5    93.5      0     1.01     15.4     15.4     15.4   100    34.3    10.646     4.1    0.434    0.482      98        0.06    0.000    0.000     231.1    231.1    1.71   164.3     724.8     200.1     200.1     128.6     128.6      42.3    0.000     0.000     0.000     0.000     0.000    1.71     0.00    0.00      0   -9.90   -9.00        9.6        9.6        9.6        9.6        9.6        9.6        9.6        9.6        9.6        9.6       11.7       11.7        0.0        0.0        0.0        0.0        0.0        0.0        0.0        0.0        0.0        0.0        0.0        0.0     10.1      15.2      19.5      27.3      35.1    391.85
     2     9  2011    64     3     231.0     7.8      7.9    0.0    7.8    0.0      0.0      0.0   -9.90      0.3      0.3    100     15.4     15.4   100     15.7    15.7     100     17.3    1.73     -9      0      0      0      0    93.6    93.6      0     1.01     15.4     15.4     15.4   100    34.3    10.993     4.9    0.542    0.603      98        0.07    0.000    0.000     231.0    231.0    1.73   166.2     732.9     202.3     202.3     130.0     130.0      42.7    0.000     0.000     0.000     0.000     0.000    1.73     0.00    0.00      0   -9.90   -9.00        9.6        9.6        9.6        9.6        9.6        9.6        9.6        9.6        9.6        9.6       11.7       11.7        0.0        0.0        0.0        0.0        0.0        0.0        0.0        0.0        0.0        0.0        0.0        0.0      7.8      15.2      20.6      28.1      35.6    391.85
     3     9  2011    65     3     230.9    13.5      0.0    0.0   13.3    0.1      0.0      0.0   -9.90      0.3      0.3    100     13.2     13.2   100     13.5    13.5     100     17.8    1.75     -9      0      0      0      0    93.6    93.6      0     1.01     13.2     13.2     13.2   100    34.3    11.338     5.9    0.674    0.749      98        0.09    0.000    0.000     230.9    230.9    1.75   167.8     741.1     204.6     204.6     123.4     123.4      43.2    0.000     0.000     0.000     0.000     0.000    1.75     0.00    0.00      0   -9.90   -9.00       20.0        6.7        6.8        8.3        9.6        9.6        9.6        9.6        9.6        9.6       11.7       11.7        0.0        0.0        0.0        0.0        0.0        0.0        0.0        0.0        0.0        0.0        0.0        0.0     13.5      13.1      21.6      27.3      33.1    391.85
     4     9  2011    66     3     230.1     5.4      8.9    0.0    5.4    0.0      0.0      0.0   -9.90      0.3      0.3    100     14.8     14.8   100     15.1    15.1     100     16.3    1.77     -9      0      0      0      0    93.7    93.7      0     1.01     14.8     14.8     14.8   100    34.3    11.683     7.1    0.833    0.925      98        0.10    0.000    0.000     230.1    230.1    1.77   168.9     749.2     206.8     206.8     131.0     131.0      43.7    0.000     0.000     0.000     0.000     0.000    1.77     0.00    0.00      0   -9.90   -9.00        9.5        9.5        9.6        9.6        9.6        9.6        9.6        9.6        9.6        9.6       11.7       11.7        0.0        0.0        0.0        0.0        0.0        0.0        0.0        0.0        0.0        0.0        0.0        0.0      5.4      14.7      18.7      26.3      34.0    391.85
     5     9  2011    67     3     226.7     5.2      4.7    0.0    5.2    0.0      0.0      0.0   -9.90      0.3      0.3    100     13.0     13.0   100     13.3    13.3     100     17.6    1.79     -9      0      0      0      0    93.7    93.7      0     1.00     13.0     13.0     13.0   100    34.3    12.028     8.5    1.022    1.136      98        0.12    0.000    0.000     226.7    226.7    1.79   167.3     757.2     209.0     209.0     125.6     125.6      44.2    0.000     0.000     0.000     0.000     0.000    1.79     0.00    0.00      0   -9.90   -9.00        9.3        9.3        9.4        9.4        9.4        9.4        9.4        9.4        9.4        9.4       11.7       11.7        0.0        0.0        0.0        0.0        0.0        0.0        0.0        0.0        0.0        0.0        0.0        0.0      5.2      12.9      21.2      27.0      32.7    391.85
     6     9  2011    68     3     229.8    10.0      8.1    0.0   10.0    0.0      0.0      0.0   -9.90      0.3      0.3    100     14.7     14.7   100     15.0    15.0     100     16.7    1.81     -9      0      0      0      0    93.8    93.8      0     1.00     14.7     14.7     14.7   100    34.3    12.371    10.0    1.240    1.378      98        0.15    0.000    0.000     229.8    229.8    1.81   172.7     765.3     211.2     211.2     133.7     133.7      44.6    0.000     0.000     0.000     0.000     0.000    1.81     0.00    0.00      0   -9.90   -9.00        9.5        9.5        9.6        9.6        9.6        9.6        9.6        9.6        9.6        9.6       11.6       11.7        0.0        0.0        0.0        0.0        0.0        0.0        0.0        0.0        0.0        0.0        0.0        0.0     10.0      14.7      19.5      26.9      34.4    391.85
     7     9  2011    69     4     229.0    11.1      3.0    0.0   11.1    0.0      0.0      0.0   -9.90      0.3      0.3    100     14.6     14.6   100     14.9    14.9     100     16.8    1.83     -9      0      0      0      0    93.8    93.8      0     1.00     14.6     14.6     14.6   100    34.3    12.714    11.5    1.468    1.631      98        0.17    0.000    0.000     229.0    229.0    1.83   174.5     773.3     213.5     213.5     134.6     134.6      45.1    0.000     0.000     0.000     0.000     0.000    1.83     0.00    0.00      0   -9.90   -9.00        9.5        9.5        9.5        9.5        9.5        9.5        9.5        9.5        9.5        9.5       11.4       11.7        0.0        0.0        0.0        0.0        0.0        0.0        0.0        0.0        0.0        0.0        0.0        0.0     11.1      14.6      19.5      26.9      34.3    391.85
     8     9  2011    70     4     225.8     8.2      2.3    0.0    8.2    0.0      0.0      0.0   -9.90      0.3      0.3    100     13.4     13.4   100     13.6    13.6     100     17.3    1.85     -9      0      0      0      0    93.8    93.8      0     1.00     13.4     13.4     13.4   100    34.3    13.056    13.1    1.707    1.897      98        0.20    0.000    0.000     225.8    225.8    1.85   174.3     781.3     215.7     215.7     131.3     131.3      45.6    0.000     0.000     0.000     0.000     0.000    1.85     0.00    0.00      0   -9.90   -9.00        9.4        9.4        9.4        9.4        9.4        9.4        9.4        9.4        9.4        9.4       11.0       11.7        0.0        0.0        0.0        0.0        0.0        0.0        0.0        0.0        0.0        0.0        0.0        0.0      8.2      13.4      20.7      26.9      33.2    391.85
     9     9  2011    71     4     228.4    16.7      0.0    0.0   16.3    0.3      0.0      0.0   -9.90      0.3      0.3    100     13.4     13.4   100     13.7    13.7     100     16.8    1.87     -9      0      0      0      0    93.9    93.9      0     1.00     13.4     13.4     13.4   100    34.3    13.398    14.6    1.956    2.173      98        0.22    0.000    0.000     228.4    228.4    1.87   179.0     789.2     217.9     217.9     133.1     133.1      46.1    0.000     0.000     0.000     0.000     0.000    1.87     0.00    0.00      0   -9.90   -9.00       22.9        6.5        6.6        7.9        9.4        9.4        9.4        9.4        9.4        9.4       11.0       11.7        0.0        0.0        0.0        0.0        0.0        0.0        0.0        0.0        0.0        0.0        0.0        0.0     16.7      13.5      19.5      26.1      32.7    391.85
    10     9  2011    72     4     226.4     0.1     12.5    0.0    0.1    0.0      0.0      0.0   -9.90      0.3      0.3    100     14.3     14.3   100     14.6    14.6     100     16.0    1.89     -9      0      0      0      0    93.9    93.9      0     0.99     14.3     14.3     14.3   100    34.3    13.738    16.1    2.215    2.461      98        0.25    0.000    0.000     226.4    226.4    1.89   179.9     797.2     220.0     220.0     138.0     138.0      46.5    0.000     0.000     0.000     0.000     0.000    1.89     0.00    0.00      0   -9.90   -9.00        9.5        9.5        9.5        9.5        9.5        9.5        9.5        9.5        9.5        9.5       10.5       11.7        0.0        0.0        0.0        0.0        0.0        0.0        0.0        0.0        0.0        0.0        0.0        0.0      0.1      14.4      18.1      25.8      33.4    391.85
    11     9  2011    73     4     225.8    13.2      0.0    0.0   13.1    0.1      0.0      0.0   -9.90      0.3      0.3    100     13.4     13.4   100     13.7    13.7     100     18.0    1.90     -9      0      0      0      0    93.9    93.9      0     0.99     13.4     13.4     13.4   100    34.3    14.078    17.6    2.484    2.761      98        0.27    0.000    0.000     225.8    225.8    1.90   181.2     805.1     222.2     222.2     135.9     135.9      47.0    0.000     0.000     0.000     0.000     0.000    1.90     0.00    0.00      0   -9.90   -9.00       19.7        6.6        6.7        8.1        9.5        9.5        9.5        9.5        9.5        9.5       10.5       11.7        0.0        0.0        0.0        0.0        0.0        0.0        0.0        0.0        0.0        0.0        0.0        0.0     13.2      13.5      22.0      28.1      34.2    391.85
    12     9  2011    74     4     224.8     3.6      9.6    0.0    3.6    0.0      0.0      0.0   -9.90      0.3      0.3    100     14.0     14.0   100     14.3    14.3     100     17.0    1.92     -9      0      0      0      0    93.9    93.9      0     0.99     14.0     14.0     14.0   100    34.3    14.417    19.2    2.764    3.071      98        0.30    0.000    0.000     224.8    224.8    1.92   182.8     813.0     224.4     224.4     139.9     139.9      47.5    0.000     0.000     0.000     0.000     0.000    1.92     0.00    0.00      0   -9.90   -9.00        9.5        9.5        9.5        9.5        9.5        9.5        9.5        9.5        9.5        9.5       10.0       11.7        0.0        0.0        0.0        0.0        0.0        0.0        0.0        0.0        0.0        0.0        0.0        0.0      3.6      14.2      19.9      27.0      34.1    391.85
    13     9  2011    75     4     223.7     4.8      8.3    0.0    4.8    0.0      0.0      0.0   -9.90      0.3      0.3    100     13.8     13.8   100     14.1    14.1     100     17.4    1.94     -9      0      0      0      0    93.9    93.9      0     0.99     13.8     13.8     13.8   100    34.3    14.754    20.7    3.054    3.393      98        0.33    0.000    0.000     223.7    223.7    1.94   183.9     820.8     226.6     226.6     140.6     140.6      47.9    0.000     0.000     0.000     0.000     0.000    1.94     0.00    0.00      0   -9.90   -9.00        9.4        9.4        9.5        9.5        9.5        9.5        9.5        9.5        9.5        9.5        9.7       11.7        0.0        0.0        0.0        0.0        0.0        0.0        0.0        0.0        0.0        0.0        0.0        0.0      4.8      14.0      20.8      27.6      34.4    391.85
    14     9  2011    76     4     224.5    10.9      4.3    0.0   10.9    0.0      0.0      0.0   -9.90      0.3      0.3    100     14.1     14.1   100     14.5    14.5     100     16.8    1.96     -9      0     -9      0      0    93.4    93.4      0     0.97     14.1     14.1     14.1   100    34.3    15.088    22.2    3.353    3.726      98        0.35    0.000    0.000     224.5    224.5    1.96   186.5     828.6     228.7     228.7     144.1     144.1      48.4    0.000     0.000     0.000     0.000     0.000    1.96     0.00    0.00      0   -9.90   -9.00        9.5        9.5        9.5        9.5        9.5        9.5        9.5        9.5        9.5        9.5        9.6       11.7        0.0        0.0        0.0        0.0        0.0        0.0        0.0        0.0        0.0        0.0        0.0        0.0     10.9      14.5      19.7      27.1      34.6    391.85
    15     9  2011    77     4     221.2     4.7      5.0    0.0    4.7    0.0      0.0      0.0   -9.90      0.4      0.4    100     12.5     12.5   100     12.9    12.9     100     17.0    1.98     -9      0     -9      0      0    92.7    92.7      0     0.96     12.5     12.5     12.5   100    34.3    15.418    23.7    3.661    4.068      98        0.38    0.000    0.000     221.2    221.2    1.98   185.2     836.4     230.9     230.9     139.2     139.2      48.8    0.000     0.000     0.000     0.000     0.000    1.98     0.00    0.00      0   -9.90   -9.00        9.3        9.3        9.4        9.4        9.4        9.4        9.4        9.4        9.4        9.4        9.4       11.7        0.0        0.0        0.0        0.0        0.0        0.0        0.0        0.0        0.0        0.0        0.0        0.0      4.7      13.1      20.0      26.3      32.6    391.85
    16     9  2011    78     4     224.5    13.5      4.2    0.0   13.4    0.1      0.0      0.0   -9.90      0.5      0.5    100     13.9     13.9   100     14.3    14.3     100     16.6    2.00     -9      0     -9      0      0    92.0    92.0      0     0.94     13.9     13.9     13.9   100    34.3    15.741    25.3    3.978    4.420      99        0.41    0.000    0.000     224.5    224.5    2.00   190.2     844.2     233.0     233.0     147.4     147.4      49.3    0.000     0.000     0.000     0.000     0.000    2.00     0.00    0.00      0   -9.90   -9.00        9.5        9.5        9.6        9.6        9.6        9.6        9.6        9.6        9.6        9.6        9.5       11.7        0.0        0.0        0.0        0.0        0.0        0.0        0.0        0.0        0.0        0.0        0.0        0.0     13.5      14.7      19.3      27.0      34.8    391.85
    17     9  2011    79     4     225.7     9.8      6.0    0.0    9.8    0.0      0.0      0.0   -9.90      0.6      0.6    100     14.1     14.1   100     14.7    14.7     100     16.6    2.01     -9      0     -9      0      0    91.1    91.1      0     0.93     14.1     14.1     14.1   100    34.3    16.060    26.8    4.304    4.782      99        0.44    0.000    0.000     225.7    225.7    2.01   193.0     852.0     235.2     235.2     150.9     150.9      49.8    0.000     0.000     0.000     0.000     0.000    2.01     0.00    0.00      0   -9.90   -9.00        9.6        9.6        9.6        9.6        9.6        9.6        9.6        9.6        9.6        9.6        9.6       11.7        0.0        0.0        0.0        0.0        0.0        0.0        0.0        0.0        0.0        0.0        0.0        0.0      9.8      15.2      19.3      27.4      35.6    391.85
    18     9  2011    80     4     223.3     4.8      6.3    0.0    4.8    0.0      0.0      0.0   -9.90      0.6      0.6    100     12.8     12.8   100     13.4    13.4     100     16.8    2.03     -9      0     -9      0      0    90.1    90.1      0     0.91     12.8     12.8     12.8   100    34.3    16.371    28.3    4.637    5.152      99        0.46    0.000    0.000     223.3    223.3    2.03   192.4     859.7     237.3     237.3     147.5     147.5      50.2    0.000     0.000     0.000     0.000     0.000    2.03     0.00    0.00      0   -9.90   -9.00        9.4        9.4        9.5        9.5        9.5        9.5        9.5        9.5        9.5        9.5        9.5       11.7        0.0        0.0        0.0        0.0        0.0        0.0        0.0        0.0        0.0        0.0        0.0        0.0      4.8      14.1      19.6      26.9      34.1    391.85
    19     9  2011    81     4     221.6     2.9      7.9    0.0    2.9    0.0      0.0      0.0   -9.90      0.7      0.7    100     11.8     11.8   100     12.5    12.5     100     17.5    2.05     -9      0     -9      0      0    89.1    89.1      0     0.89     11.8     11.8     11.8   100    34.3    16.676    29.8    4.978    5.531      99        0.49    0.000    0.000     221.6    221.6    2.05   192.5     867.4     239.4     239.4     145.4     145.4      50.7    0.000     0.000     0.000     0.000     0.000    2.05     0.00    0.00      0   -9.90   -9.00        9.4        9.4        9.4        9.4        9.4        9.4        9.4        9.4        9.4        9.4        9.4       11.7        0.0        0.0        0.0        0.0        0.0        0.0        0.0        0.0        0.0        0.0        0.0        0.0      2.9      13.3      20.9      27.3      33.7    391.85
    20     9  2011    82     4     222.7     5.8      8.3    0.0    5.8    0.0      0.0      0.0   -9.90      0.8      0.8    100     12.1     12.1   100     13.0    13.0     100     16.8    2.07     -9      0     -9      0      0    87.8    87.8      0     0.87     12.1     12.1     12.1   100    34.3    16.974    31.4    5.325    5.917      99        0.52    0.000    0.000     222.7    222.7    2.07   196.0     875.1     241.5     241.5     149.8     149.8      51.1    0.000     0.000     0.000     0.000     0.000    2.07     0.00    0.00      0   -9.90   -9.00        9.4        9.4        9.5        9.5        9.5        9.5        9.5        9.5        9.5        9.5        9.5       11.5        0.0        0.0        0.0        0.0        0.0        0.0        0.0        0.0        0.0        0.0        0.0        0.0      5.8      14.0      19.7      26.9      34.1    391.85
    21     9  2011    83     4     217.4     5.3      0.3    0.0    5.3    0.0      0.0      0.0   -9.90      0.8      0.8    100     10.1     10.1   100     10.9    10.9     100     17.1    2.09     -9      0     -9      0      0    86.4    86.4      0     0.84     10.1     10.1     10.1   100    34.3    17.263    32.9    5.679    6.310      99        0.55    0.000    0.000     217.4    217.4    2.09   193.6     882.8     243.7     243.7     142.0     142.0      51.6    0.000     0.000     0.000     0.000     0.000    2.09     0.00    0.00      0   -9.90   -9.00        9.2        9.2        9.3        9.3        9.3        9.3        9.3        9.3        9.3        9.3        9.3       11.2        0.0        0.0        0.0        0.0        0.0        0.0        0.0        0.0        0.0        0.0        0.0        0.0      5.3      11.9      20.2      25.8      31.3    391.85
    22     9  2011    84     4     220.2     4.5     10.5    0.0    4.5    0.0      0.0      0.0   -9.90      1.1      1.1    100     11.2     11.2   100     12.2    12.2     100     16.8    2.10     -9      0     -9      0      0    84.9    84.9      0     0.82     11.2     11.2     11.2   100    34.3    17.543    34.4    6.039    6.710      99        0.57    0.000    0.000     220.2    220.2    2.10   199.2     890.4     245.8     245.8     151.1     151.1      52.0    0.000     0.000     0.000     0.000     0.000    2.10     0.00    0.00      0   -9.90   -9.00        9.4        9.4        9.5        9.5        9.5        9.5        9.5        9.5        9.5        9.5        9.5       10.8        0.0        0.0        0.0        0.0        0.0        0.0        0.0        0.0        0.0        0.0        0.0        0.0      4.5      13.7      19.7      26.7      33.7    391.85
    23     9  2011    85     4     220.6     1.2     11.7    0.0    1.2    0.0      0.0      0.0   -9.90      1.2      1.2    100     11.3     11.3   100     12.5    12.5     100     17.2    2.12     -9      0     -9      0      0    83.1    83.1      0     0.79     11.3     11.3     11.3   100    34.3    17.812    35.9    6.403    7.115      99        0.60    0.000    0.000     220.6    220.6    2.12   202.2     898.0     247.9     247.9     155.2     155.2      52.5    0.000     0.000     0.000     0.000     0.000    2.12     0.00    0.00      0   -9.90   -9.00        9.5        9.5        9.5        9.5        9.5        9.5        9.5        9.5        9.5        9.5        9.5       10.4        0.0        0.0        0.0        0.0        0.0        0.0        0.0        0.0        0.0        0.0        0.0        0.0      1.2      14.3      20.4      27.8      35.1    391.85
    24     9  2011    86     4     219.7     7.1      4.2    0.0    7.1    0.0      0.0      0.0   -9.90      1.4      1.4    100     10.8     10.8   100     12.2    12.2     100     16.4    2.14     -9      0     -9      0      0    81.1    81.1      0     0.75     10.8     10.8     10.8   100    34.3    18.071    37.5    6.772    7.524      99        0.63    0.000    0.000     219.7    219.7    2.14   203.6     905.6     250.0     250.0     156.2     156.2      52.9    0.000     0.000     0.000     0.000     0.000    2.14     0.00    0.00      0   -9.90   -9.00        9.5        9.5        9.5        9.5        9.5        9.5        9.5        9.5        9.5        9.5        9.5       10.1        0.0        0.0        0.0        0.0        0.0        0.0        0.0        0.0        0.0        0.0        0.0        0.0      7.1      14.3      18.8      26.6      34.3    391.85
    25     9  2011    87     4     218.6     1.0      9.5    0.0    1.0    0.0      0.0      0.0   -9.90      1.5      1.5     99     10.1     10.1   100     11.6    11.6     100     16.9    2.16     -9      0     -9      0      0    78.9    78.9      0     0.72     10.1     10.1     10.1   100    34.3    18.317    39.0    7.143    7.937      99        0.66    0.000    0.000     218.6    218.6    2.16   204.7     913.2     252.1     252.1     156.6     156.6      53.4    0.000     0.000     0.000     0.000     0.000    2.16     0.00    0.00      0   -9.90   -9.00        9.4        9.4        9.5        9.5        9.5        9.5        9.5        9.5        9.5        9.5        9.5        9.8        0.0        0.0        0.0        0.0        0.0        0.0        0.0        0.0        0.0        0.0        0.0        0.0      1.0      14.1      19.8      27.2      34.6    391.85
[...]
    10    12  2015    -9     0     214.0     1.5      0.0    0.0    1.5    0.0      0.0      0.0   -9.90     11.4      2.2     19      0.0      0.0   100     11.4     2.2      19     17.4    2.28     -9     -9     -9      0     -9     0.0     0.0      0    -9.00      0.0      0.0      0.0   100    34.5    19.972    48.2    9.621   10.690     100        0.83    0.000    0.000     214.0    214.0    2.28   212.3     965.7     266.5     266.5     147.8     161.7      56.5    0.000     0.000     0.000     0.000     0.000    2.28     0.00    0.00      0   -9.90   -9.00        1.2       10.0       11.5        9.5        9.5        9.5        9.5        9.5        9.5        9.5        9.5        9.5        0.0        0.0        0.0        0.0        0.0        0.0        0.0        0.0        0.0        0.0        0.0        0.0      1.5      10.4      20.8      27.2      33.5    401.01
    11    12  2015    -9     0     215.1     6.2      0.0    0.0    6.2    0.0      0.0      0.0   -9.90     12.1      5.1     42      0.0      0.0   100     12.1     5.1      42     16.4    2.28     -9     -9     -9      0     -9     0.0     0.0      0    -9.00      0.0      0.0      0.0   100    34.5    19.972    48.2    9.621   10.690     100        0.83    0.000    0.000     215.1    215.1    2.28   213.5     965.7     266.5     266.5     150.8     161.7      56.5    0.000     0.000     0.000     0.000     0.000    2.28     0.00    0.00      0   -9.90   -9.00        2.3       10.0       11.5        9.5        9.5        9.5        9.5        9.5        9.5        9.5        9.5        9.5        0.0        0.0        0.0        0.0        0.0        0.0        0.0        0.0        0.0        0.0        0.0        0.0      6.2      11.0      18.8      26.2      33.7    401.01
    12    12  2015    -9     0     214.3     2.6      0.0    0.0    2.6    0.0      0.0      0.0   -9.90     11.9      3.5     29      0.0      0.0   100     11.9     3.5      29     17.8    2.28     -9     -9     -9      0     -9     0.0     0.0      0    -9.00      0.0      0.0      0.0   100    34.5    19.972    48.2    9.621   10.690     100        0.83    0.000    0.000     214.3    214.3    2.28   212.6     965.7     266.5     266.5     149.9     161.7      56.5    0.000     0.000     0.000     0.000     0.000    2.28     0.00    0.00      0   -9.90   -9.00        1.5       10.0       11.5        9.5        9.5        9.5        9.5        9.5        9.5        9.5        9.5        9.5        0.0        0.0        0.0        0.0        0.0        0.0        0.0        0.0        0.0        0.0        0.0        0.0      2.6      10.8      21.5      28.1      34.8    401.01
    13    12  2015    -9     0     213.6     2.3      0.0    0.0    2.3    0.0      0.0      0.0   -9.90     12.1      3.0     25      0.0      0.0   100     12.1     3.0      25     17.3    2.28     -9     -9     -9      0     -9     0.0     0.0      0    -9.00      0.0      0.0      0.0   100    34.5    19.972    48.2    9.621   10.690     100        0.83    0.000    0.000     213.6    213.6    2.28   211.9     965.7     266.5     266.5     151.0     161.7      56.5    0.000     0.000     0.000     0.000     0.000    2.28     0.00    0.00      0   -9.90   -9.00        1.2        9.8       11.5        9.5        9.5        9.5        9.5        9.5        9.5        9.5        9.5        9.5        0.0        0.0        0.0        0.0        0.0        0.0        0.0        0.0        0.0        0.0        0.0        0.0      2.3      11.0      20.6      27.7      34.7    401.01
    14    12  2015    -9     0     217.1    11.4      0.0    0.0   11.4    0.0      0.0      0.0   -9.90     11.9      7.9     67      0.0      0.0   100     11.9     7.9      67     16.4    2.28     -9     -9     -9      0     -9     0.0     0.0      0    -9.00      0.0      0.0      0.0   100    34.5    19.972    48.2    9.621   10.690     100        0.83    0.000    0.000     217.1    217.1    2.28   215.4     965.7     266.5     266.5     149.9     161.7      56.5    0.000     0.000     0.000     0.000     0.000    2.28     0.00    0.00      0   -9.90   -9.00        4.7        9.8       11.5        9.5        9.5        9.5        9.5        9.5        9.5        9.5        9.5        9.5        0.0        0.0        0.0        0.0        0.0        0.0        0.0        0.0        0.0        0.0        0.0        0.0     11.4      10.8      18.8      26.0      33.3    401.01
    15    12  2015    -9     0     217.0     6.8      0.0    0.0    6.8    0.0      0.0      0.0   -9.90     10.9      6.8     63      0.0      0.0   100     10.9     6.8      63     17.0    2.28     -9     -9     -9      0     -9     0.0     0.0      0    -9.00      0.0      0.0      0.0   100    34.5    19.972    48.2    9.621   10.690     100        0.83    0.000    0.000     217.0    217.0    2.28   215.4     965.7     266.5     266.5     145.5     161.7      56.5    0.000     0.000     0.000     0.000     0.000    2.28     0.00    0.00      0   -9.90   -9.00        4.7        9.8       11.5        9.5        9.5        9.5        9.5        9.5        9.5        9.5        9.5        9.5        0.0        0.0        0.0        0.0        0.0        0.0        0.0        0.0        0.0        0.0        0.0        0.0      6.8       9.9      20.0      26.1      32.2    401.01
    16    12  2015    -9     0     215.4     3.1      0.0    0.0    3.1    0.0      0.0      0.0   -9.90     11.8      4.7     40      0.0      0.0   100     11.8     4.7      40     17.5    2.28     -9     -9     -9      0     -9     0.0     0.0      0    -9.00      0.0      0.0      0.0   100    34.5    19.972    48.2    9.621   10.690     100        0.83    0.000    0.000     215.4    215.4    2.28   213.7     965.7     266.5     266.5     149.6     161.7      56.5    0.000     0.000     0.000     0.000     0.000    2.28     0.00    0.00      0   -9.90   -9.00        3.0        9.8       11.5        9.5        9.5        9.5        9.5        9.5        9.5        9.5        9.5        9.5        0.0        0.0        0.0        0.0        0.0        0.0        0.0        0.0        0.0        0.0        0.0        0.0      3.1      10.8      20.9      27.7      34.4    401.01
    17    12  2015    -9     0     216.9     9.3      0.0    0.0    9.3    0.0      0.0      0.0   -9.90     12.4      7.8     63      0.0      0.0   100     12.4     7.8      63     17.7    2.28     -9     -9     -9      0     -9     0.0     0.0      0    -9.00      0.0      0.0      0.0   100    34.5    19.972    48.2    9.621   10.690     100        0.83    0.000    0.000     216.9    216.9    2.28   215.2     965.7     266.5     266.5     152.1     161.7      56.5    0.000     0.000     0.000     0.000     0.000    2.28     0.00    0.00      0   -9.90   -9.00        4.5        9.8       11.5        9.5        9.5        9.5        9.5        9.5        9.5        9.5        9.5        9.5        0.0        0.0        0.0        0.0        0.0        0.0        0.0        0.0        0.0        0.0        0.0        0.0      9.3      11.3      21.4      28.5      35.6    401.01
    18    12  2015    -9     0     215.4     4.0      0.0    0.0    4.0    0.0      0.0      0.0   -9.90     12.1      5.5     45      0.0      0.0   100     12.1     5.5      45     16.9    2.28     -9     -9     -9      0     -9     0.0     0.0      0    -9.00      0.0      0.0      0.0   100    34.5    19.972    48.2    9.621   10.690     100        0.83    0.000    0.000     215.4    215.4    2.28   213.8     965.7     266.5     266.5     150.9     161.7      56.5    0.000     0.000     0.000     0.000     0.000    2.28     0.00    0.00      0   -9.90   -9.00        3.1        9.8       11.5        9.5        9.5        9.5        9.5        9.5        9.5        9.5        9.5        9.5        0.0        0.0        0.0        0.0        0.0        0.0        0.0        0.0        0.0        0.0        0.0        0.0      4.0      11.0      19.9      27.1      34.3    401.01
    19    12  2015    -9     0     216.5     7.4      0.0    0.0    7.4    0.0      0.0      0.0   -9.90     11.6      6.4     55      0.0      0.0   100     11.6     6.4      55     16.4    2.28     -9     -9     -9      0     -9     0.0     0.0      0    -9.00      0.0      0.0      0.0   100    34.5    19.972    48.2    9.621   10.690     100        0.83    0.000    0.000     216.5    216.5    2.28   214.8     965.7     266.5     266.5     148.5     161.7      56.5    0.000     0.000     0.000     0.000     0.000    2.28     0.00    0.00      0   -9.90   -9.00        4.1        9.8       11.5        9.5        9.5        9.5        9.5        9.5        9.5        9.5        9.5        9.5        0.0        0.0        0.0        0.0        0.0        0.0        0.0        0.0        0.0        0.0        0.0        0.0      7.4      10.5      18.8      25.8      32.8    401.01
    20    12  2015    -9     0     215.6     4.9      0.0    0.0    4.9    0.0      0.0      0.0   -9.90     12.7      5.7     45      0.0      0.0   100     12.7     5.7      45     16.8    2.28     -9     -9     -9      0     -9     0.0     0.0      0    -9.00      0.0      0.0      0.0   100    34.5    19.972    48.2    9.621   10.690     100        0.83    0.000    0.000     215.6    215.6    2.28   213.9     965.7     266.5     266.5     153.2     161.7      56.5    0.000     0.000     0.000     0.000     0.000    2.28     0.00    0.00      0   -9.90   -9.00        3.2        9.8       11.5        9.5        9.5        9.5        9.5        9.5        9.5        9.5        9.5        9.5        0.0        0.0        0.0        0.0        0.0        0.0        0.0        0.0        0.0        0.0        0.0        0.0      4.9      11.5      19.6      27.4      35.1    401.01
    21    12  2015    -9     0     216.9     7.7      0.0    0.0    7.7    0.0      0.0      0.0   -9.90     10.7      6.4     60      0.0      0.0   100     10.7     6.4      60     17.0    2.28     -9     -9     -9      0     -9     0.0     0.0      0    -9.00      0.0      0.0      0.0   100    34.5    19.972    48.2    9.621   10.690     100        0.83    0.000    0.000     216.9    216.9    2.28   215.2     965.7     266.5     266.5     144.8     161.7      56.5    0.000     0.000     0.000     0.000     0.000    2.28     0.00    0.00      0   -9.90   -9.00        4.5        9.8       11.5        9.5        9.5        9.5        9.5        9.5        9.5        9.5        9.5        9.5        0.0        0.0        0.0        0.0        0.0        0.0        0.0        0.0        0.0        0.0        0.0        0.0      7.7       9.8      19.9      25.9      31.9    401.01
    22    12  2015    -9     0     221.8    13.3      0.0    0.0   13.3    0.0      0.0      0.0   -9.90     11.7      8.3     71      0.0      0.0   100     11.7     8.3      71     17.3    2.28     -9     -9     -9      0     -9     0.0     0.0      0    -9.00      0.0      0.0      0.0   100    34.5    19.972    48.2    9.621   10.690     100        0.83    0.000    0.000     221.8    221.8    2.28   220.2     965.7     266.5     266.5     148.9     161.7      56.5    0.000     0.000     0.000     0.000     0.000    2.28     0.00    0.00      0   -9.90   -9.00        9.6        9.8       11.5        9.5        9.5        9.5        9.5        9.5        9.5        9.5        9.5        9.5        0.0        0.0        0.0        0.0        0.0        0.0        0.0        0.0        0.0        0.0        0.0        0.0     13.3      10.6      20.7      27.3      33.9    401.01
    23    12  2015    -9     0     217.6     3.6      0.0    0.0    3.6    0.0      0.0      0.0   -9.90     12.7      7.8     62      0.0      0.0   100     12.7     7.8      62     17.3    2.28     -9     -9     -9      0     -9     0.0     0.0      0    -9.00      0.0      0.0      0.0   100    34.5    19.972    48.2    9.621   10.690     100        0.83    0.000    0.000     217.6    217.6    2.28   215.9     965.7     266.5     266.5     153.5     161.7      56.5    0.000     0.000     0.000     0.000     0.000    2.28     0.00    0.00      0   -9.90   -9.00        5.2        9.8       11.5        9.5        9.5        9.5        9.5        9.5        9.5        9.5        9.5        9.5        0.0        0.0        0.0        0.0        0.0        0.0        0.0        0.0        0.0        0.0        0.0        0.0      3.6      11.6      20.6      28.2      35.7    401.01
    24    12  2015    -9     0     218.6     8.8      0.0    0.0    8.8    0.0      0.0      0.0   -9.90     11.1      7.8     70      0.0      0.0   100     11.1     7.8      70     16.8    2.28     -9     -9     -9      0     -9     0.0     0.0      0    -9.00      0.0      0.0      0.0   100    34.5    19.972    48.2    9.621   10.690     100        0.83    0.000    0.000     218.6    218.6    2.28   216.9     965.7     266.5     266.5     146.5     161.7      56.5    0.000     0.000     0.000     0.000     0.000    2.28     0.00    0.00      0   -9.90   -9.00        6.2        9.8       11.5        9.5        9.5        9.5        9.5        9.5        9.5        9.5        9.5        9.5        0.0        0.0        0.0        0.0        0.0        0.0        0.0        0.0        0.0        0.0        0.0        0.0      8.8      10.1      19.6      26.0      32.4    401.01
    25    12  2015    -9     0     216.0     1.1      0.0    0.0    1.1    0.0      0.0      0.0   -9.90     10.7      3.7     35      0.0      0.0   100     10.7     3.7      35     17.2    2.28     -9     -9     -9      0     -9     0.0     0.0      0    -9.00      0.0      0.0      0.0   100    34.5    19.972    48.2    9.621   10.690     100        0.83    0.000    0.000     216.0    216.0    2.28   214.3     965.7     266.5     266.5     144.4     161.7      56.5    0.000     0.000     0.000     0.000     0.000    2.28     0.00    0.00      0   -9.90   -9.00        3.6        9.8       11.5        9.5        9.5        9.5        9.5        9.5        9.5        9.5        9.5        9.5        0.0        0.0        0.0        0.0        0.0        0.0        0.0        0.0        0.0        0.0        0.0        0.0      1.1       9.7      20.3      26.1      31.9    401.01
    26    12  2015    -9     0     214.7     2.0      0.0    0.0    2.0    0.0      0.0      0.0   -9.90     11.6      3.2     28      0.0      0.0   100     11.6     3.2      28     17.5    2.28     -9     -9     -9      0     -9     0.0     0.0      0    -9.00      0.0      0.0      0.0   100    34.5    19.972    48.2    9.621   10.690     100        0.83    0.000    0.000     214.7    214.7    2.28   213.0     965.7     266.5     266.5     148.7     161.7      56.5    0.000     0.000     0.000     0.000     0.000    2.28     0.00    0.00      0   -9.90   -9.00        2.3        9.8       11.5        9.5        9.5        9.5        9.5        9.5        9.5        9.5        9.5        9.5        0.0        0.0        0.0        0.0        0.0        0.0        0.0        0.0        0.0        0.0        0.0        0.0      2.0      10.6      21.1      27.5      34.0    401.01
    27    12  2015    -9     0     215.2     5.8      0.0    0.0    5.8    0.0      0.0      0.0   -9.90     12.0      5.3     44      0.0      0.0   100     12.0     5.3      44     16.6    2.28     -9     -9     -9      0     -9     0.0     0.0      0    -9.00      0.0      0.0      0.0   100    34.5    19.972    48.2    9.621   10.690     100        0.83    0.000    0.000     215.2    215.2    2.28   213.6     965.7     266.5     266.5     150.5     161.7      56.5    0.000     0.000     0.000     0.000     0.000    2.28     0.00    0.00      0   -9.90   -9.00        2.8        9.8       11.5        9.5        9.5        9.5        9.5        9.5        9.5        9.5        9.5        9.5        0.0        0.0        0.0        0.0        0.0        0.0        0.0        0.0        0.0        0.0        0.0        0.0      5.8      10.9      19.3      26.5      33.8    401.01
    28    12  2015    -9     0     214.4     3.8      0.0    0.0    3.8    0.0      0.0      0.0   -9.90     11.3      4.6     40      0.0      0.0   100     11.3     4.6      40     17.2    2.28     -9     -9     -9      0     -9     0.0     0.0      0    -9.00      0.0      0.0      0.0   100    34.5    19.972    48.2    9.621   10.690     100        0.83    0.000    0.000     214.4    214.4    2.28   212.8     965.7     266.5     266.5     147.0     161.7      56.5    0.000     0.000     0.000     0.000     0.000    2.28     0.00    0.00      0   -9.90   -9.00        2.0        9.8       11.5        9.5        9.5        9.5        9.5        9.5        9.5        9.5        9.5        9.5        0.0        0.0        0.0        0.0        0.0        0.0        0.0        0.0        0.0        0.0        0.0        0.0      3.8      10.2      20.4      26.7      32.9    401.01
    29    12  2015    -9     0     214.8     5.5      0.0    0.0    5.5    0.0      0.0      0.0   -9.90     12.8      5.2     40      0.0      0.0   100     12.8     5.2      40     16.0    2.28     -9     -9     -9      0     -9     0.0     0.0      0    -9.00      0.0      0.0      0.0   100    34.5    19.972    48.2    9.621   10.690     100        0.83    0.000    0.000     214.8    214.8    2.28   213.1     965.7     266.5     266.5     153.9     161.7      56.5    0.000     0.000     0.000     0.000     0.000    2.28     0.00    0.00      0   -9.90   -9.00        2.4        9.8       11.5        9.5        9.5        9.5        9.5        9.5        9.5        9.5        9.5        9.5        0.0        0.0        0.0        0.0        0.0        0.0        0.0        0.0        0.0        0.0        0.0        0.0      5.5      11.6      18.1      26.3      34.5    401.01
    30    12  2015    -9     0     213.9     1.5      0.0    0.0    1.5    0.0      0.0      0.0   -9.90     11.7      2.4     20      0.0      0.0   100     11.7     2.4      20     16.7    2.28     -9     -9     -9      0     -9     0.0     0.0      0    -9.00      0.0      0.0      0.0   100    34.5    19.972    48.2    9.621   10.690     100        0.83    0.000    0.000     213.9    213.9    2.28   212.2     965.7     266.5     266.5     149.1     161.7      56.5    0.000     0.000     0.000     0.000     0.000    2.28     0.00    0.00      0   -9.90   -9.00        1.5        9.8       11.5        9.5        9.5        9.5        9.5        9.5        9.5        9.5        9.5        9.5        0.0        0.0        0.0        0.0        0.0        0.0        0.0        0.0        0.0        0.0        0.0        0.0      1.5      10.7      19.5      26.3      33.2    401.01
    31    12  2015    -9     0     216.4     8.6      0.0    0.0    8.6    0.0      0.0      0.0   -9.90     11.0      6.0     55      0.0      0.0   100     11.0     6.0      55     17.3    2.28     -9     -9     -9      0     -9     0.0     0.0      0    -9.00      0.0      0.0      0.0   100    34.5    19.972    48.2    9.621   10.690     100        0.83    0.000    0.000     216.4    216.4    2.28   214.8     965.7     266.5     266.5     145.9     161.7      56.5    0.000     0.000     0.000     0.000     0.000    2.28     0.00    0.00      0   -9.90   -9.00        4.1        9.8       11.5        9.5        9.5        9.5        9.5        9.5        9.5        9.5        9.5        9.5        0.0        0.0        0.0        0.0        0.0        0.0        0.0        0.0        0.0        0.0        0.0        0.0      8.6      10.0      20.6      26.6      32.5    401.01
