AquaCrop 7.1 (August 2023) - Output created on (date) : 16-01-2026   at (time) : 12:17:19

    RunNr     Day1   Month1    Year1     Rain      ETo       GD     CO2      Irri   Infilt   Runoff    Drain   Upflow        E     E/Ex       Tr      TrW   Tr/Trx    SaltIn   SaltOut    SaltUp  SaltProf     Cycle   SaltStr  FertStr  WeedStr  TempStr   ExpStr   StoStr  BioMass  Brelative   HI    Y(dry)  Y(fresh)    WPet      Bin     Bout     DayN   MonthN    YearN
                                           mm       mm  degC.day    ppm        mm       mm       mm       mm       mm       mm        %       mm       mm        %    ton/ha    ton/ha    ton/ha    ton/ha      days       %        %        %        %        %        %    ton/ha        %       %    ton/ha   ton/ha    kg/m3   ton/ha   ton/ha
   Tot(1)        1        7     2011   1155.3   2391.7   3133.3   391.85    522.7   1152.3      3.0      0.0      0.0    907.9       54    815.3    815.3      100     0.000     0.000     0.000     0.000       89        0       30        0        0        1        0    19.693       99     48.1    9.482   10.535     0.82    0.000    0.000       31       12     2011  cluster_240.PRM
   Tot(2)        1        7     2012   1038.6   2397.6   3128.0   394.06    583.6   1035.1      3.5      0.0      0.0    833.7       49    821.8    821.8      100     0.000     0.000     0.000     0.000       89        0       30        0        0        1        0    19.897       99     48.1    9.580   10.644     0.82    0.000    0.000       31       12     2012  cluster_240.PRM
   Tot(3)        1        7     2013   1009.4   2411.2   3123.7   396.74    580.8   1006.7      2.7      0.0      0.0    823.1       48    818.4    818.4      100     0.000     0.000     0.000     0.000       89        0       30        0        0        2        0    19.669       98     48.2    9.476   10.529     0.83    0.000    0.000       31       12     2013  cluster_240.PRM
   Tot(4)        1        7     2014   1057.4   2397.6   3125.0   398.81    593.0   1055.1      2.4      0.2      0.0    872.8       52    825.8    825.8      100     0.000     0.000     0.000     0.000       89        0       30        0        0        0        0    20.001      100     48.2    9.636   10.707     0.82    0.000    0.000       31       12     2014  cluster_240.PRM
   Tot(5)        1        7     2015   1017.1   2386.6   3136.2   401.01    603.7   1015.7      1.3      0.8      0.0    851.4       51    819.4    819.4      100     0.000     0.000     0.000     0.000       89        0       30        0        0        1        0    19.972      100     48.2    9.621   10.690     0.83    0.000    0.000       31       12     2015  cluster_240.PRM
