AquaCrop 7.1 (August 2023) - Output created on (date) : 29-01-2026   at (time) : 01:20:24

   Run:   1
   Day Month  Year   DAP Stage   WC(2.30)   Rain     Irri   Surf   Infilt   RO    Drain       CR    Zgwt       Ex       E     E/Ex     Trx       Tr  Tr/Trx    ETx      ET  ET/ETx      GD       Z     StExp  StSto  StSen StSalt StWeed   CC      CCw     StTr  Kc(Tr)     Trx       Tr      TrW  Tr/Trx   WP    Biomass     HI    Y(dry)  Y(fresh)  Brelative    WPet      Bin     Bout  WC(2.30) Wr(2.30)     Z       Wr    Wr(SAT)    Wr(FC)   Wr(exp)   Wr(sto)   Wr(sen)   Wr(PWP)    SaltIn    SaltOut   SaltUp   Salt(2.30)  SaltZ     Z       ECe    ECsw   StSalt  Zgwt    ECgw       WC01       WC 2       WC 3       WC 4       WC 5       WC 6       WC 7       WC 8       WC 9       WC10       WC11       WC12      ECe01      ECe 2      ECe 3      ECe 4      ECe 5      ECe 6      ECe 7      ECe 8      ECe 9      ECe10      ECe11      ECe12     Rain       ETo      Tmin      Tavg      Tmax      CO2
                                      mm      mm       mm     mm     mm     mm       mm       mm      m        mm       mm     %        mm       mm    %        mm      mm       %  degC-day     m       %      %      %      %      %      %       %       %       -        mm       mm       mm    %     g/m2    ton/ha      %    ton/ha   ton/ha       %       kg/m3   ton/ha   ton/ha      mm       mm       m       mm        mm        mm        mm        mm        mm         mm    ton/ha    ton/ha    ton/ha    ton/ha    ton/ha     m      dS/m    dS/m      %     m      dS/m       0.05       0.18       0.33       0.48       0.63       0.80       1.00       1.20       1.43       1.68       1.93       2.18       0.05       0.18       0.33       0.48       0.63       0.80       1.00       1.20       1.43       1.68       1.93       2.18       mm        mm     degC      degC      degC       ppm
     1     7  2024     1     1     268.4     0.0      0.0    0.0    0.0    0.0      0.0      0.0   -9.90      0.2      0.2     99      0.0      0.0   100      0.2     0.2      99     18.4    0.30     -9     -9     -9      0     -9     0.0     0.0      0    -9.00      0.0      0.0      0.0   100     0.0     0.000    -9.9    0.000    0.000      -9        0.00    0.000    0.000     268.4    268.4    0.30    34.4     125.1      34.6      30.7      12.4      15.5       6.9    0.000     0.000     0.000     0.000     0.000    0.30     0.00    0.00      0   -9.90   -9.00       11.5       11.7       11.7       11.7       11.7       11.7       11.7       11.7       11.7       11.7       11.7       11.7        0.0        0.0        0.0        0.0        0.0        0.0        0.0        0.0        0.0        0.0        0.0        0.0      0.0       0.2      25.2      26.4      27.7    422.57
     2     7  2024     2     1     268.2     0.1      0.0    0.0    0.1    0.0      0.0      0.0   -9.90      0.3      0.2     96      0.0      0.0   100      0.3     0.2      96     19.7    0.30     -9     -9     -9      0     -9     0.0     0.0      0    -9.00      0.0      0.0      0.0   100     0.0     0.000    -9.9    0.000    0.000      -9        0.00    0.000    0.000     268.2    268.2    0.30    34.2     125.1      34.6      30.7      12.4      15.5       6.9    0.000     0.000     0.000     0.000     0.000    0.30     0.00    0.00      0   -9.90   -9.00       11.3       11.7       11.7       11.7       11.7       11.7       11.7       11.7       11.7       11.7       11.7       11.7        0.0        0.0        0.0        0.0        0.0        0.0        0.0        0.0        0.0        0.0        0.0        0.0      0.1       0.2      25.4      27.8      30.2    422.57
     3     7  2024     3     1     268.1     0.0      0.0    0.0    0.0    0.0      0.0      0.0   -9.90      0.2      0.2    100      0.0      0.0   100      0.2     0.2     100     19.6    0.30     -9     -9     -9      0     -9     0.0     0.0      0    -9.00      0.0      0.0      0.0   100     0.0     0.000    -9.9    0.000    0.000      -9        0.00    0.000    0.000     268.1    268.1    0.30    34.1     125.1      34.6      30.7      12.4      15.5       6.9    0.000     0.000     0.000     0.000     0.000    0.30     0.00    0.00      0   -9.90   -9.00       11.2       11.7       11.7       11.7       11.7       11.7       11.7       11.7       11.7       11.7       11.7       11.7        0.0        0.0        0.0        0.0        0.0        0.0        0.0        0.0        0.0        0.0        0.0        0.0      0.0       0.2      26.3      27.6      28.9    422.57
     4     7  2024     4     1     267.9     0.0      0.0    0.0    0.0    0.0      0.0      0.0   -9.90      0.2      0.2     99      0.0      0.0   100      0.2     0.2      99     18.4    0.30     -9     -9     -9      0     -9     0.0     0.0      0    -9.00      0.0      0.0      0.0   100     0.0     0.000    -9.9    0.000    0.000      -9        0.00    0.000    0.000     267.9    267.9    0.30    33.9     125.1      34.6      30.7      12.4      15.5       6.9    0.000     0.000     0.000     0.000     0.000    0.30     0.00    0.00      0   -9.90   -9.00       11.0       11.7       11.7       11.7       11.7       11.7       11.7       11.7       11.7       11.7       11.7       11.7        0.0        0.0        0.0        0.0        0.0        0.0        0.0        0.0        0.0        0.0        0.0        0.0      0.0       0.2      25.0      26.4      27.9    422.57
     5     7  2024     5     1     267.7     0.0      0.0    0.0    0.0    0.0      0.0      0.0   -9.90      0.2      0.2     95      0.0      0.0   100      0.2     0.2      95     18.4    0.32     -9     -9     -9      0     -9     0.0     0.0      0    -9.00      0.0      0.0      0.0   100     0.0     0.000    -9.9    0.000    0.000      -9        0.00    0.000    0.000     267.7    267.7    0.32    36.1     133.5      36.9      32.8      13.3      16.5       7.4    0.000     0.000     0.000     0.000     0.000    0.32     0.00    0.00      0   -9.90   -9.00       10.8       11.7       11.7       11.7       11.7       11.7       11.7       11.7       11.7       11.7       11.7       11.7        0.0        0.0        0.0        0.0        0.0        0.0        0.0        0.0        0.0        0.0        0.0        0.0      0.0       0.2      24.8      26.4      28.0    422.57
     6     7  2024     6     1     267.5     0.0      0.0    0.0    0.0    0.0      0.0      0.0   -9.90      0.3      0.3     89      0.0      0.0   100      0.3     0.3      89     19.5    0.36     -9     -9     -9      0     -9     0.0     0.0      0    -9.00      0.0      0.0      0.0   100     0.0     0.000    -9.9    0.000    0.000      -9        0.00    0.000    0.000     267.5    267.5    0.36    40.5     150.6      41.6      37.0      15.1      18.7       8.4    0.000     0.000     0.000     0.000     0.000    0.36     0.00    0.00      0   -9.90   -9.00       10.6       11.7       11.7       11.7       11.7       11.7       11.7       11.7       11.7       11.7       11.7       11.7        0.0        0.0        0.0        0.0        0.0        0.0        0.0        0.0        0.0        0.0        0.0        0.0      0.0       0.3      24.9      28.0      31.0    422.57
     7     7  2024     7     2     267.3     0.0      0.0    0.0    0.0    0.0      0.0      0.0   -9.90      0.1      0.1     85      0.0      0.0   100      0.1     0.1      85     18.6    0.40     -9      0      0      0      0     0.4     0.4      0     0.01      0.0      0.0      0.0   100    35.0     0.003    -9.9    0.000    0.000     100        0.00    0.000    0.000     267.3    267.3    0.40    44.7     166.4      46.0      34.1      16.6      16.6       9.3    0.000     0.000     0.000     0.000     0.000    0.40     0.00    0.00      0   -9.90   -9.00       10.4       11.7       11.7       11.7       11.7       11.7       11.7       11.7       11.7       11.7       11.7       11.7        0.0        0.0        0.0        0.0        0.0        0.0        0.0        0.0        0.0        0.0        0.0        0.0      0.0       0.1      25.8      26.6      27.5    422.57
     8     7  2024     8     2     267.6     0.4      0.0    0.0    0.4    0.0      0.0      0.0   -9.90      0.2      0.2    100      0.0      0.0   100      0.2     0.2     100     18.6    0.43     -9      0      0      0      0     0.5     0.5      0     0.01      0.0      0.0      0.0   100    35.0     0.006    -9.9    0.000    0.000     100        0.00    0.000    0.000     267.6    267.6    0.43    49.1     181.2      50.1      37.2      18.1      18.1      10.2    0.000     0.000     0.000     0.000     0.000    0.43     0.00    0.00      0   -9.90   -9.00       10.7       11.7       11.7       11.7       11.7       11.7       11.7       11.7       11.7       11.7       11.7       11.7        0.0        0.0        0.0        0.0        0.0        0.0        0.0        0.0        0.0        0.0        0.0        0.0      0.4       0.1      25.7      26.6      27.5    422.57
     9     7  2024     9     2     267.5     0.1      0.0    0.0    0.1    0.0      0.0      0.0   -9.90      0.3      0.3    100      0.0      0.0   100      0.3     0.3     100     19.4    0.47      0      0      0      0      0     0.6     0.6      0     0.01      0.0      0.0      0.0   100    35.0     0.010    -9.9    0.000    0.000     100        0.00    0.000    0.000     267.5    267.5    0.47    52.9     195.4      54.0      40.3      19.6      19.6      11.0    0.000     0.000     0.000     0.000     0.000    0.47     0.00    0.00      0   -9.90   -9.00       10.6       11.7       11.7       11.7       11.7       11.7       11.7       11.7       11.7       11.7       11.7       11.7        0.0        0.0        0.0        0.0        0.0        0.0        0.0        0.0        0.0        0.0        0.0        0.0      0.1       0.2      24.7      27.4      30.1    422.57
    10     7  2024    10     2     267.2     0.0      0.0    0.0    0.0    0.0      0.0      0.0   -9.90      0.2      0.2     95      0.0      0.0   100      0.2     0.2      95     18.8    0.50      0      0      0      0      0     0.7     0.7      0     0.01      0.0      0.0      0.0   100    35.0     0.014    -9.9    0.000    0.000     100        0.00    0.000    0.000     267.2    267.2    0.50    56.4     209.1      57.8      43.0      21.0      21.0      11.9    0.000     0.000     0.000     0.000     0.000    0.50     0.00    0.00      0   -9.90   -9.00       10.3       11.7       11.7       11.7       11.7       11.7       11.7       11.7       11.7       11.7       11.7       11.7        0.0        0.0        0.0        0.0        0.0        0.0        0.0        0.0        0.0        0.0        0.0        0.0      0.0       0.2      24.9      26.8      28.8    422.57
    11     7  2024    11     2     267.0     0.0      0.0    0.0    0.0    0.0      0.0      0.0   -9.90      0.2      0.2     90      0.0      0.0   100      0.2     0.2      90     19.6    0.53      0      0      0      0      0     0.8     0.8      0     0.01      0.0      0.0      0.0   100    35.0     0.019    -9.9    0.000    0.000     100        0.00    0.000    0.000     267.0    267.0    0.53    59.9     222.3      61.4      45.8      22.3      22.3      12.6    0.000     0.000     0.000     0.000     0.000    0.53     0.00    0.00      0   -9.90   -9.00       10.1       11.7       11.7       11.7       11.7       11.7       11.7       11.7       11.7       11.7       11.7       11.7        0.0        0.0        0.0        0.0        0.0        0.0        0.0        0.0        0.0        0.0        0.0        0.0      0.0       0.2      25.5      27.6      29.7    422.57
    12     7  2024    12     2     266.9     0.0      0.0    0.0    0.0    0.0      0.0      0.0   -9.90      0.2      0.1     85      0.0      0.0   100      0.2     0.1      86     18.7    0.56      0      0      0      0      0     1.0     1.0      0     0.02      0.0      0.0      0.0   100    35.0     0.026    -9.9    0.000    0.000     100        0.00    0.000    0.000     266.9    266.9    0.56    63.3     235.2      65.0      48.3      23.6      23.6      13.4    0.000     0.000     0.000     0.000     0.000    0.56     0.00    0.00      0   -9.90   -9.00       10.0       11.7       11.7       11.7       11.7       11.7       11.7       11.7       11.7       11.7       11.7       11.7        0.0        0.0        0.0        0.0        0.0        0.0        0.0        0.0        0.0        0.0        0.0        0.0      0.0       0.1      25.5      26.7      27.8    422.57
    13     7  2024    13     2     266.7     0.0      0.0    0.0    0.0    0.0      0.0      0.0   -9.90      0.2      0.2     94      0.0      0.0   100      0.2     0.2      95     18.2    0.59      0      0      0      0      0     1.2     1.2      0     0.02      0.0      0.0      0.0   100    35.0     0.033    -9.9    0.000    0.000     100        0.00    0.000    0.000     266.7    266.7    0.59    66.6     247.7      68.4      51.0      24.9      24.9      14.1    0.000     0.000     0.000     0.000     0.000    0.59     0.00    0.00      0   -9.90   -9.00        9.8       11.7       11.7       11.7       11.7       11.7       11.7       11.7       11.7       11.7       11.7       11.7        0.0        0.0        0.0        0.0        0.0        0.0        0.0        0.0        0.0        0.0        0.0        0.0      0.0       0.2      24.6      26.2      27.9    422.57
    14     7  2024    14     2     266.5     0.0      0.0    0.0    0.0    0.0      0.0      0.0   -9.90      0.2      0.2    100      0.0      0.0   100      0.2     0.2     100     18.8    0.62      0      0      0      0      0     1.4     1.4      0     0.02      0.0      0.0      0.0   100    35.0     0.041    -9.9    0.000    0.000     100        0.00    0.000    0.000     266.5    266.5    0.62    69.7     259.9      71.8      53.5      26.2      26.2      14.8    0.000     0.000     0.000     0.000     0.000    0.62     0.00    0.00      0   -9.90   -9.00        9.6       11.7       11.7       11.7       11.7       11.7       11.7       11.7       11.7       11.7       11.7       11.7        0.0        0.0        0.0        0.0        0.0        0.0        0.0        0.0        0.0        0.0        0.0        0.0      0.0       0.2      25.1      26.8      28.5    422.57
    15     7  2024    15     2     266.3     0.0      0.0    0.0    0.0    0.0      0.0      0.0   -9.90      0.2      0.2     97      0.0      0.0   100      0.2     0.2      97     19.0    0.65      0      0      0      0      0     1.6     1.6      0     0.03      0.0      0.0      0.0   100    35.0     0.051    -9.9    0.000    0.000     100        0.00    0.000    0.000     266.3    266.3    0.65    72.8     271.9      75.1      56.0      27.4      27.4      15.6    0.000     0.000     0.000     0.000     0.000    0.65     0.00    0.00      0   -9.90   -9.00        9.4       11.7       11.7       11.7       11.7       11.7       11.7       11.7       11.7       11.7       11.7       11.7        0.0        0.0        0.0        0.0        0.0        0.0        0.0        0.0        0.0        0.0        0.0        0.0      0.0       0.2      25.1      27.0      29.0    422.57
    16     7  2024    16     2     266.1     0.0      0.0    0.0    0.0    0.0      0.0      0.0   -9.90      0.2      0.2     92      0.0      0.0   100      0.2     0.2      92     19.4    0.67      0      0      0      0      0     1.9     1.9      0     0.03      0.0      0.0      0.0   100    35.0     0.063    -9.9    0.000    0.000     100        0.00    0.000    0.000     266.1    266.1    0.67    75.9     283.6      78.3      58.4      28.6      28.6      16.2    0.000     0.000     0.000     0.000     0.000    0.67     0.00    0.00      0   -9.90   -9.00        9.2       11.7       11.7       11.7       11.7       11.7       11.7       11.7       11.7       11.7       11.7       11.7        0.0        0.0        0.0        0.0        0.0        0.0        0.0        0.0        0.0        0.0        0.0        0.0      0.0       0.2      25.8      27.4      28.9    422.57
    17     7  2024    17     2     265.9     0.0      0.0    0.0    0.0    0.0      0.0      0.0   -9.90      0.2      0.2     99      0.0      0.0   100      0.2     0.2      99     19.6    0.70      0      0      0      0      0     2.3     2.3      0     0.04      0.0      0.0      0.0   100    35.0     0.077    -9.9    0.000    0.000     100        0.00    0.000    0.000     265.9    265.9    0.70    78.9     295.2      81.5      60.8      29.8      29.8      16.9    0.000     0.000     0.000     0.000     0.000    0.70     0.00    0.00      0   -9.90   -9.00        9.0       11.7       11.7       11.7       11.7       11.7       11.7       11.7       11.7       11.7       11.7       11.7        0.0        0.0        0.0        0.0        0.0        0.0        0.0        0.0        0.0        0.0        0.0        0.0      0.0       0.2      25.6      27.6      29.5    422.57
    18     7  2024    18     2     266.4     0.7      0.0    0.0    0.7    0.0      0.0      0.0   -9.90      0.2      0.2    100      0.0      0.0   100      0.2     0.2     100     19.2    0.73      0      0      0      0      0     2.7     2.7      0     0.05      0.0      0.0      0.0   100    35.0     0.094    -9.9    0.000    0.000     100        0.00    0.000    0.000     266.4    266.4    0.73    82.5     306.5      84.6      63.1      30.9      30.9      17.6    0.000     0.000     0.000     0.000     0.000    0.73     0.00    0.00      0   -9.90   -9.00        9.5       11.7       11.7       11.7       11.7       11.7       11.7       11.7       11.7       11.7       11.7       11.7        0.0        0.0        0.0        0.0        0.0        0.0        0.0        0.0        0.0        0.0        0.0        0.0      0.7       0.2      25.7      27.2      28.8    422.57
    19     7  2024    19     2     266.5     0.3      0.0    0.0    0.3    0.0      0.0      0.0   -9.90      0.2      0.2    100      0.0      0.0   100      0.3     0.3     100     19.8    0.75      0      0      0      0      0     3.2     3.2      0     0.06      0.0      0.0      0.0   100    35.0     0.113    -9.9    0.000    0.000     100        0.00    0.000    0.000     266.5    266.5    0.75    85.6     317.7      87.7      65.5      32.1      32.1      18.3    0.000     0.000     0.000     0.000     0.000    0.75     0.00    0.00      0   -9.90   -9.00        9.5       11.7       11.7       11.7       11.7       11.7       11.7       11.7       11.7       11.7       11.7       11.7        0.0        0.0        0.0        0.0        0.0        0.0        0.0        0.0        0.0        0.0        0.0        0.0      0.3       0.2      25.6      28.0      30.4    422.57
    20     7  2024    20     2     266.3     0.0      0.0    0.0    0.0    0.0      0.0      0.0   -9.90      0.2      0.2     97      0.0      0.0   100      0.2     0.2      97     19.6    0.78      0      0      0      0      0     3.7     3.7      0     0.06      0.0      0.0      0.0   100    35.0     0.136    -9.9    0.000    0.000     100        0.00    0.000    0.000     266.3    266.3    0.78    88.5     328.7      90.8      67.6      33.1      33.1      18.9    0.000     0.000     0.000     0.000     0.000    0.78     0.00    0.00      0   -9.90   -9.00        9.4       11.7       11.7       11.7       11.7       11.7       11.7       11.7       11.7       11.7       11.7       11.7        0.0        0.0        0.0        0.0        0.0        0.0        0.0        0.0        0.0        0.0        0.0        0.0      0.0       0.2      26.4      27.6      28.9    422.57
    21     7  2024    21     2     266.2     0.1      0.0    0.0    0.1    0.0      0.0      0.0   -9.90      0.2      0.2     95      0.0      0.0   100      0.2     0.2      95     19.7    0.81      0      0      0      0      0     4.4     4.4      0     0.08      0.0      0.0      0.0   100    35.0     0.163    -9.9    0.000    0.000     100        0.00    0.000    0.000     266.2    266.2    0.81    91.4     339.6      93.8      70.0      34.3      34.3      19.5    0.000     0.000     0.000     0.000     0.000    0.81     0.00    0.00      0   -9.90   -9.00        9.3       11.7       11.7       11.7       11.7       11.7       11.7       11.7       11.7       11.7       11.7       11.7        0.0        0.0        0.0        0.0        0.0        0.0        0.0        0.0        0.0        0.0        0.0        0.0      0.1       0.2      25.9      27.7      29.6    422.57
    22     7  2024    22     2     266.0     0.0      0.0    0.0    0.0    0.0      0.0      0.0   -9.90      0.2      0.2    100      0.0      0.0   100      0.2     0.2     100     20.2    0.83      0      0      0      0      0     5.2     5.2      0     0.09      0.0      0.0      0.0   100    35.0     0.194    -9.9    0.000    0.000     100        0.00    0.000    0.000     266.0    266.0    0.83    94.2     350.3      96.7      72.1      35.4      35.4      20.2    0.000     0.000     0.000     0.000     0.000    0.83     0.00    0.00      0   -9.90   -9.00        9.1       11.7       11.7       11.7       11.7       11.7       11.7       11.7       11.7       11.7       11.7       11.7        0.0        0.0        0.0        0.0        0.0        0.0        0.0        0.0        0.0        0.0        0.0        0.0      0.0       0.2      26.5      28.2      29.9    422.57
    23     7  2024    23     2     265.8     0.0      0.0    0.0    0.0    0.0      0.0      0.0   -9.90      0.2      0.2     96      0.0      0.0   100      0.2     0.2      96     20.1    0.86      0      0      0      0      0     6.1     6.1      0     0.10      0.0      0.0      0.0   100    35.0     0.231    -9.9    0.000    0.000     100        0.00    0.000    0.000     265.8    265.8    0.86    96.9     360.9      99.7      74.3      36.5      36.5      20.8    0.000     0.000     0.000     0.000     0.000    0.86     0.00    0.00      0   -9.90   -9.00        8.9       11.7       11.7       11.7       11.7       11.7       11.7       11.7       11.7       11.7       11.7       11.7        0.0        0.0        0.0        0.0        0.0        0.0        0.0        0.0        0.0        0.0        0.0        0.0      0.0       0.2      26.4      28.1      29.7    422.57
    24     7  2024    24     2     267.5     1.9      0.0    0.0    1.9    0.0      0.0      0.0   -9.90      0.2      0.2    100      0.0      0.0   100      0.2     0.2     100     20.2    0.88      0      0      0      0      0     7.2     7.2      0     0.12      0.0      0.0      0.0   100    35.0     0.274    -9.9    0.000    0.000     100        0.00    0.000    0.000     267.5    267.5    0.88   101.4     371.4     102.5      76.5      37.5      37.5      21.4    0.000     0.000     0.000     0.000     0.000    0.88     0.00    0.00      0   -9.90   -9.00       10.6       11.7       11.7       11.7       11.7       11.7       11.7       11.7       11.7       11.7       11.7       11.7        0.0        0.0        0.0        0.0        0.0        0.0        0.0        0.0        0.0        0.0        0.0        0.0      1.9       0.2      26.7      28.2      29.8    422.57
    25     7  2024    25     2     269.1     1.8      0.0    0.0    1.8    0.0      0.0      0.0   -9.90      0.2      0.2    100      0.0      0.0   100      0.2     0.2     100     18.8    0.91      0      0      0      0      0     8.5     8.5      0     0.14      0.0      0.0      0.0   100    35.0     0.324    -9.9    0.000    0.000     100        0.00    0.000    0.000     269.1    269.1    0.91   105.9     381.7     105.4      78.5      38.5      38.5      22.0    0.000     0.000     0.000     0.000     0.000    0.91     0.00    0.00      0   -9.90   -9.00       12.2       11.7       11.7       11.7       11.7       11.7       11.7       11.7       11.7       11.7       11.7       11.7        0.0        0.0        0.0        0.0        0.0        0.0        0.0        0.0        0.0        0.0        0.0        0.0      1.8       0.2      25.5      26.8      28.1    422.57
    26     7  2024    26     2     277.6     9.0      0.0    0.0    8.8    0.1      0.2      0.0   -9.90      0.2      0.2    100      0.0      0.0   100      0.2     0.2     100     19.5    0.93      0      0      0      0      0    10.0    10.0      0     0.17      0.0      0.0      0.0   100    35.0     0.383    -9.9    0.000    0.000     100        0.00    0.000    0.000     277.6    277.6    0.93   117.2     392.0     108.2      80.7      39.6      39.6      22.6    0.000     0.000     0.000     0.000     0.000    0.93     0.00    0.00      0   -9.90   -9.00       20.6       11.7       11.7       11.7       11.7       11.7       11.7       11.7       11.7       11.7       11.7       11.7        0.0        0.0        0.0        0.0        0.0        0.0        0.0        0.0        0.0        0.0        0.0        0.0      9.0       0.2      26.1      27.5      28.9    422.57
    27     7  2024    27     2     274.2     0.1      0.0    0.0    0.1    0.0      3.3      0.0   -9.90      0.2      0.2    100      0.0      0.0   100      0.2     0.2     100     19.6    0.95      0      0      0      0      0    11.8    11.8      0     0.20      0.0      0.0      0.0   100    35.0     0.452    -9.9    0.000    0.000     100        0.00    0.000    0.000     274.2    274.2    0.95   115.5     402.2     111.0      82.8      40.6      40.6      23.2    0.000     0.000     0.000     0.000     0.000    0.95     0.00    0.00      0   -9.90   -9.00       12.5       12.4       12.5       12.1       12.0       11.9       11.9       11.8       11.8       11.8       11.8       11.8        0.0        0.0        0.0        0.0        0.0        0.0        0.0        0.0        0.0        0.0        0.0        0.0      0.1       0.2      26.3      27.6      29.0    422.57
    28     7  2024    28     2     270.7     0.0      0.0    0.0    0.0    0.0      3.3      0.0   -9.90      0.1      0.1    100      0.0      0.0   100      0.2     0.2     100     19.2    0.98      0      0      0      0      0    14.0    14.0      0     0.23      0.0      0.0      0.0   100    35.0     0.532    -9.9    0.000    0.000     100        0.00    0.000    0.000     270.7    270.7    0.98   115.0     412.2     113.8      84.8      41.7      41.7      23.8    0.000     0.000     0.000     0.000     0.000    0.98     0.00    0.00      0   -9.90   -9.00       11.6       11.8       11.9       11.9       11.9       11.8       11.8       11.8       11.8       11.8       11.8       11.8        0.0        0.0        0.0        0.0        0.0        0.0        0.0        0.0        0.0        0.0        0.0        0.0      0.0       0.2      25.8      27.2      28.6    422.57
    29     7  2024    29     2     269.0     0.0      0.0    0.0    0.0    0.0      1.6      0.0   -9.90      0.1      0.1     98      0.0      0.0   100      0.2     0.2      99     19.7    1.00      0      0      0      0      0    16.5    16.5      0     0.27      0.0      0.0      0.0   100    35.0     0.626    -9.9    0.000    0.000     100        0.00    0.000    0.000     269.0    269.0    1.00   116.6     422.2     116.6      86.9      42.7      42.7      24.4    0.000     0.000     0.000     0.000     0.000    1.00     0.00    0.00      0   -9.90   -9.00       11.4       11.7       11.7       11.7       11.7       11.7       11.7       11.7       11.7       11.7       11.7       11.7        0.0        0.0        0.0        0.0        0.0        0.0        0.0        0.0        0.0        0.0        0.0        0.0      0.0       0.2      26.1      27.7      29.2    422.57
    30     7  2024    30     2     268.3     0.0      0.0    0.0    0.0    0.0      0.5      0.0   -9.90      0.1      0.1     96      0.1      0.1   100      0.2     0.2      97     19.4    1.02      0      0      0      0      0    19.4    19.4      0     0.31      0.1      0.1      0.1   100    35.0     0.734    -9.9    0.000    0.000     100        0.00    0.000    0.000     268.3    268.3    1.02   119.0     432.0     119.3      89.0      43.7      43.7      25.0    0.000     0.000     0.000     0.000     0.000    1.02     0.00    0.00      0   -9.90   -9.00       11.3       11.7       11.7       11.7       11.7       11.7       11.7       11.7       11.7       11.7       11.7       11.7        0.0        0.0        0.0        0.0        0.0        0.0        0.0        0.0        0.0        0.0        0.0        0.0      0.0       0.2      25.9      27.4      28.9    422.57
    31     7  2024    31     2     268.0     0.0      0.0    0.0    0.0    0.0      0.1      0.0   -9.90      0.1      0.1    100      0.1      0.1   100      0.2     0.2     100     19.8    1.05      0      0      0      0      0    22.9    22.9      0     0.36      0.1      0.1      0.1   100    35.0     0.859    -9.9    0.000    0.000     100        0.00    0.000    0.000     268.0    268.0    1.05   121.4     441.8     122.0      91.0      44.7      44.7      25.6    0.000     0.000     0.000     0.000     0.000    1.05     0.00    0.00      0   -9.90   -9.00       11.1       11.7       11.7       11.7       11.7       11.7       11.7       11.7       11.7       11.7       11.7       11.7        0.0        0.0        0.0        0.0        0.0        0.0        0.0        0.0        0.0        0.0        0.0        0.0      0.0       0.2      26.3      27.8      29.3    422.57
     1     8  2024    32     2     267.8     0.0      0.0    0.0    0.0    0.0      0.0      0.0   -9.90      0.1      0.1     98      0.1      0.1   100      0.2     0.2      99     19.6    1.07      0      0      0      0      0    27.0    27.0      0     0.41      0.1      0.1      0.1   100    35.0     1.003    -9.9    0.000    0.000     100        0.00    0.000    0.000     267.8    267.8    1.07   123.9     451.5     124.7      93.0      45.7      45.7      26.1    0.000     0.000     0.000     0.000     0.000    1.07     0.00    0.00      0   -9.90   -9.00       10.9       11.7       11.7       11.7       11.7       11.7       11.7       11.7       11.7       11.7       11.7       11.7        0.0        0.0        0.0        0.0        0.0        0.0        0.0        0.0        0.0        0.0        0.0        0.0      0.0       0.2      25.8      27.6      29.3    422.57
     2     8  2024    33     2     267.7     0.1      0.0    0.0    0.1    0.0      0.0      0.0   -9.90      0.1      0.1     97      0.1      0.1   100      0.2     0.2      98     19.8    1.09      0      0      0      0      0    31.8    31.8      0     0.47      0.1      0.1      0.1   100    35.0     1.168    -9.9    0.000    0.000     100        0.00    0.000    0.000     267.7    267.7    1.09   126.4     461.2     127.3      95.0      46.7      46.7      26.7    0.000     0.000     0.000     0.000     0.000    1.09     0.00    0.00      0   -9.90   -9.00       10.8       11.7       11.7       11.7       11.7       11.7       11.7       11.7       11.7       11.7       11.7       11.7        0.0        0.0        0.0        0.0        0.0        0.0        0.0        0.0        0.0        0.0        0.0        0.0      0.1       0.2      26.2      27.8      29.3    422.57
     3     8  2024    34     2     267.5     0.1      0.0    0.0    0.1    0.0      0.0      0.0   -9.90      0.1      0.1    100      0.1      0.1   100      0.3     0.3     100     20.0    1.12      0      0      0      0      0    37.5    37.5      0     0.54      0.1      0.1      0.1   100    35.0     1.357    -9.9    0.000    0.000     100        0.00    0.000    0.000     267.5    267.5    1.12   128.9     470.7     130.0      97.2      47.8      47.8      27.3    0.000     0.000     0.000     0.000     0.000    1.12     0.00    0.00      0   -9.90   -9.00       10.6       11.7       11.7       11.7       11.7       11.7       11.7       11.7       11.7       11.7       11.7       11.7        0.0        0.0        0.0        0.0        0.0        0.0        0.0        0.0        0.0        0.0        0.0        0.0      0.1       0.2      25.9      28.5      31.0    422.57
     4     8  2024    35     2     267.4     0.1      0.0    0.0    0.1    0.0      0.0      0.0   -9.90      0.1      0.1    100      0.1      0.1   100      0.2     0.2     100     20.0    1.14      0      0      0      0      0    44.3    44.3      0     0.61      0.1      0.1      0.1   100    35.0     1.571    -9.9    0.000    0.000     100        0.00    0.000    0.000     267.4    267.4    1.14   131.4     480.2     132.6      98.9      48.6      48.6      27.8    0.000     0.000     0.000     0.000     0.000    1.14     0.00    0.00      0   -9.90   -9.00       10.5       11.7       11.7       11.7       11.7       11.7       11.7       11.7       11.7       11.7       11.7       11.7        0.0        0.0        0.0        0.0        0.0        0.0        0.0        0.0        0.0        0.0        0.0        0.0      0.1       0.2      26.6      28.0      29.3    422.57
     5     8  2024    36     2     286.0    19.9      0.0    0.0   18.7    1.1      0.0      0.0   -9.90      0.1      0.1    100      0.1      0.1   100      0.1     0.1     100     19.5    1.16      0      0      0      0      0    51.8    51.8      0     0.69      0.1      0.1      0.1   100    35.0     1.812    -9.9    0.000    0.000     100        0.00    0.000    0.000     286.0    286.0    1.16   152.6     489.6     135.2     100.7      49.5      49.5      28.4    0.000     0.000     0.000     0.000     0.000    1.16     0.00    0.00      0   -9.90   -9.00       29.4       11.7       11.7       11.7       11.7       11.7       11.7       11.7       11.7       11.7       11.7       11.7        0.0        0.0        0.0        0.0        0.0        0.0        0.0        0.0        0.0        0.0        0.0        0.0     19.9       0.1      26.6      27.5      28.5    422.57
     6     8  2024    37     2     283.9     5.0      0.0    0.0    5.0    0.0      6.9      0.0   -9.90      0.1      0.1    100      0.1      0.1   100      0.2     0.2     100     20.3    1.18      0      0      0      0      0    58.4    58.4      0     0.75      0.1      0.1      0.1   100    35.0     2.075    -9.9    0.000    0.000     100        0.00    0.000    0.000     283.9    283.9    1.18   151.1     499.0     137.8     102.7      50.5      50.5      28.9    0.000     0.000     0.000     0.000     0.000    1.18     0.00    0.00      0   -9.90   -9.00       17.2       12.8       13.3       12.6       12.3       12.1       12.0       12.0       11.9       11.9       11.8       11.8        0.0        0.0        0.0        0.0        0.0        0.0        0.0        0.0        0.0        0.0        0.0        0.0      5.0       0.2      26.9      28.3      29.6    422.57
     7     8  2024    38     2     275.5     0.1      0.0    0.0    0.1    0.0      8.3      0.0   -9.90      0.1      0.1    100      0.2      0.2   100      0.2     0.2     100     20.0    1.20      0      0      0      0      0    64.0    64.0      0     0.80      0.2      0.2      0.2   100    35.0     2.354    -9.9    0.000    0.000     100        0.00    0.000    0.000     275.5    275.5    1.20   145.4     508.3     140.3     104.8      51.5      51.5      29.5    0.000     0.000     0.000     0.000     0.000    1.20     0.00    0.00      0   -9.90   -9.00       12.2       12.2       12.4       12.2       12.1       12.0       12.0       11.9       11.9       11.9       11.8       11.8        0.0        0.0        0.0        0.0        0.0        0.0        0.0        0.0        0.0        0.0        0.0        0.0      0.1       0.2      26.1      28.0      29.9    422.57
     8     8  2024    39     2     271.7     1.0      0.0    0.0    1.0    0.0      4.6      0.0   -9.90      0.0      0.0    100      0.2      0.2   100      0.2     0.2     100     20.5    1.23      0      0      0      0      0    68.8    68.8      0     0.84      0.2      0.2      0.2   100    35.0     2.647    -9.9    0.000    0.000     100        0.00    0.000    0.000     271.7    271.7    1.23   145.1     517.5     142.9     106.6      52.5      52.5      30.0    0.000     0.000     0.000     0.000     0.000    1.23     0.00    0.00      0   -9.90   -9.00       12.6       11.8       11.9       11.8       11.8       11.8       11.8       11.8       11.8       11.8       11.8       11.8        0.0        0.0        0.0        0.0        0.0        0.0        0.0        0.0        0.0        0.0        0.0        0.0      1.0       0.2      27.0      28.6      30.3    422.57
     9     8  2024    40     2     269.8     0.2      0.0    0.0    0.2    0.0      2.0      0.0   -9.90      0.0      0.0    100      0.1      0.1   100      0.2     0.2     100     20.4    1.25      0      0      0      0      0    72.8    72.8      0     0.87      0.1      0.1      0.1   100    35.0     2.950    -9.9    0.000    0.000     100        0.00    0.000    0.000     269.8    269.8    1.25   146.2     526.7     145.4     108.4      53.3      53.3      30.6    0.000     0.000     0.000     0.000     0.000    1.25     0.00    0.00      0   -9.90   -9.00       11.8       11.8       11.8       11.8       11.8       11.7       11.7       11.7       11.7       11.7       11.7       11.7        0.0        0.0        0.0        0.0        0.0        0.0        0.0        0.0        0.0        0.0        0.0        0.0      0.2       0.2      27.2      28.4      29.6    422.57
    10     8  2024    41     2     268.9     0.1      0.0    0.0    0.1    0.0      0.8      0.0   -9.90      0.0      0.0    100      0.2      0.2   100      0.2     0.2     100     20.3    1.27      0      0      0      0      0    76.2    76.2      0     0.89      0.2      0.2      0.2   100    35.0     3.263    -9.9    0.000    0.000     100        0.00    0.000    0.000     268.9    268.9    1.27   148.1     535.8     147.9     110.4      54.3      54.3      31.1    0.000     0.000     0.000     0.000     0.000    1.27     0.00    0.00      0   -9.90   -9.00       11.6       11.7       11.7       11.7       11.7       11.7       11.7       11.7       11.7       11.7       11.7       11.7        0.0        0.0        0.0        0.0        0.0        0.0        0.0        0.0        0.0        0.0        0.0        0.0      0.1       0.2      26.6      28.3      30.0    422.57
    11     8  2024    42     2     268.5     0.2      0.0    0.0    0.2    0.0      0.3      0.0   -9.90      0.0      0.0    100      0.2      0.2   100      0.3     0.3     100     19.9    1.29      0      0      0      0      0    79.1    79.1      0     0.91      0.2      0.2      0.2   100    35.0     3.584    -9.9    0.000    0.000     100        0.00    0.000    0.000     268.5    268.5    1.29   150.3     544.9     150.4     112.5      55.4      55.4      31.6    0.000     0.000     0.000     0.000     0.000    1.29     0.00    0.00      0   -9.90   -9.00       11.5       11.7       11.7       11.7       11.7       11.7       11.7       11.7       11.7       11.7       11.7       11.7        0.0        0.0        0.0        0.0        0.0        0.0        0.0        0.0        0.0        0.0        0.0        0.0      0.2       0.2      25.9      28.6      31.3    422.57
    12     8  2024    43     2     268.4     0.1      0.0    0.0    0.1    0.0      0.1      0.0   -9.90      0.0      0.0    100      0.2      0.2   100      0.2     0.2     100     20.5    1.31      0      0      0      0      0    81.6    81.6      0     0.93      0.2      0.2      0.2   100    35.0     3.910    -9.9    0.000    0.000     100        0.00    0.000    0.000     268.4    268.4    1.31   152.7     553.9     152.9     114.3      56.2      56.2      32.2    0.000     0.000     0.000     0.000     0.000    1.31     0.00    0.00      0   -9.90   -9.00       11.4       11.7       11.7       11.7       11.7       11.7       11.7       11.7       11.7       11.7       11.7       11.7        0.0        0.0        0.0        0.0        0.0        0.0        0.0        0.0        0.0        0.0        0.0        0.0      0.1       0.2      27.0      29.0      31.1    422.57
    13     8  2024    44     2     268.3     0.1      0.0    0.0    0.1    0.0      0.0      0.0   -9.90      0.0      0.0    100      0.2      0.2   100      0.2     0.2     100     20.7    1.33      0      0      0      0      0    83.7    83.7      0     0.95      0.2      0.2      0.2   100    35.0     4.242    -9.9    0.000    0.000     100        0.00    0.000    0.000     268.3    268.3    1.33   155.1     562.8     155.4     115.9      57.0      57.0      32.7    0.000     0.000     0.000     0.000     0.000    1.33     0.00    0.00      0   -9.90   -9.00       11.4       11.7       11.7       11.7       11.7       11.7       11.7       11.7       11.7       11.7       11.7       11.7        0.0        0.0        0.0        0.0        0.0        0.0        0.0        0.0        0.0        0.0        0.0        0.0      0.1       0.2      27.5      28.8      30.1    422.57
    14     8  2024    45     2     268.3     0.2      0.0    0.0    0.2    0.0      0.0      0.0   -9.90      0.0      0.0    100      0.2      0.2   100      0.2     0.2     100     19.8    1.35      0      0      0      0      0    85.4    85.4      0     0.96      0.2      0.2      0.2   100    35.0     4.578    -9.9    0.000    0.000     100        0.00    0.000    0.000     268.3    268.3    1.35   157.6     571.7     157.8     117.8      58.0      58.0      33.2    0.000     0.000     0.000     0.000     0.000    1.35     0.00    0.00      0   -9.90   -9.00       11.4       11.7       11.7       11.7       11.7       11.7       11.7       11.7       11.7       11.7       11.7       11.7        0.0        0.0        0.0        0.0        0.0        0.0        0.0        0.0        0.0        0.0        0.0        0.0      0.2       0.2      26.3      27.8      29.3    422.57
    15     8  2024    46     2     268.1     0.1      0.0    0.0    0.1    0.0      0.0      0.0   -9.90      0.0      0.0    100      0.2      0.2   100      0.2     0.2     100     20.4    1.37      0      0      0      0      0    86.9    86.9      0     0.97      0.2      0.2      0.2   100    35.0     4.917    -9.9    0.000    0.000     100        0.00    0.000    0.000     268.1    268.1    1.37   159.8     580.6     160.3     119.8      59.0      59.0      33.8    0.000     0.000     0.000     0.000     0.000    1.37     0.00    0.00      0   -9.90   -9.00       11.2       11.7       11.7       11.7       11.7       11.7       11.7       11.7       11.7       11.7       11.7       11.7        0.0        0.0        0.0        0.0        0.0        0.0        0.0        0.0        0.0        0.0        0.0        0.0      0.1       0.2      26.9      29.2      31.6    422.57
    16     8  2024    47     2     268.0     0.1      0.0    0.0    0.1    0.0      0.0      0.0   -9.90      0.0      0.0    100      0.2      0.2   100      0.2     0.2     100     20.5    1.40      0      0      0      0      0    88.2    88.2      0     0.98      0.2      0.2      0.2   100    35.0     5.260    -9.9    0.000    0.000     100        0.00    0.000    0.000     268.0    268.0    1.40   162.1     589.4     162.7     121.7      59.9      59.9      34.3    0.000     0.000     0.000     0.000     0.000    1.40     0.00    0.00      0   -9.90   -9.00       11.1       11.7       11.7       11.7       11.7       11.7       11.7       11.7       11.7       11.7       11.7       11.7        0.0        0.0        0.0        0.0        0.0        0.0        0.0        0.0        0.0        0.0        0.0        0.0      0.1       0.2      27.0      29.5      31.9    422.57
    17     8  2024    48     2     269.6     1.7      0.0    0.0    1.7    0.0      0.0      0.0   -9.90      0.0      0.0    100      0.1      0.1   100      0.2     0.2     100     19.6    1.42      0      0      0      0      0    89.3    89.3      0     0.98      0.1      0.1      0.1   100    35.0     5.605    -9.9    0.000    0.000     100        0.00    0.000    0.000     269.6    269.6    1.42   166.1     598.2     165.1     123.1      60.6      60.6      34.8    0.000     0.000     0.000     0.000     0.000    1.42     0.00    0.00      0   -9.90   -9.00       12.7       11.7       11.7       11.7       11.7       11.7       11.7       11.7       11.7       11.7       11.7       11.7        0.0        0.0        0.0        0.0        0.0        0.0        0.0        0.0        0.0        0.0        0.0        0.0      1.7       0.1      26.5      27.6      28.6    422.57
    18     8  2024    49     2     270.3     1.2      0.0    0.0    1.2    0.0      0.3      0.0   -9.90      0.0      0.0    100      0.2      0.2   100      0.2     0.2     100     20.7    1.44      0      0      0      0      0    90.2    90.2      0     0.99      0.2      0.2      0.2   100    35.0     5.952    -9.9    0.000    0.000     100        0.00    0.000    0.000     270.3    270.3    1.44   169.2     606.9     167.5     125.0      61.5      61.5      35.3    0.000     0.000     0.000     0.000     0.000    1.44     0.00    0.00      0   -9.90   -9.00       12.9       11.8       11.8       11.7       11.7       11.7       11.7       11.7       11.7       11.7       11.7       11.7        0.0        0.0        0.0        0.0        0.0        0.0        0.0        0.0        0.0        0.0        0.0        0.0      1.2       0.2      27.4      28.7      30.1    422.57
    19     8  2024    50     2     273.0     3.5      0.0    0.0    3.5    0.0      0.7      0.0   -9.90      0.0      0.0    100      0.1      0.1   100      0.1     0.1     100     19.9    1.46      0      0      0      0      0    90.9    90.9      0     1.00      0.1      0.1      0.1   100    35.0     6.301    -9.9    0.000    0.000     100        0.00    0.000    0.000     273.0    273.0    1.46   174.2     615.5     169.9     126.6      62.3      62.3      35.8    0.000     0.000     0.000     0.000     0.000    1.46     0.00    0.00      0   -9.90   -9.00       15.3       11.8       11.8       11.8       11.8       11.7       11.7       11.7       11.7       11.7       11.7       11.7        0.0        0.0        0.0        0.0        0.0        0.0        0.0        0.0        0.0        0.0        0.0        0.0      3.5       0.1      27.1      27.9      28.8    422.57
    20     8  2024    51     2     277.4     6.4      0.0    0.0    6.4    0.0      1.7      0.0   -9.90      0.0      0.0    100      0.2      0.2   100      0.2     0.2     100     19.9    1.48      0      0      0      0      0    91.6    91.6      0     1.00      0.2      0.2      0.2   100    35.0     6.652    -9.9    0.000    0.000     100        0.00    0.000    0.000     277.4    277.4    1.48   180.9     624.2     172.3     128.6      63.3      63.3      36.3    0.000     0.000     0.000     0.000     0.000    1.48     0.00    0.00      0   -9.90   -9.00       18.4       12.0       12.0       11.9       11.8       11.8       11.8       11.8       11.7       11.7       11.7       11.7        0.0        0.0        0.0        0.0        0.0        0.0        0.0        0.0        0.0        0.0        0.0        0.0      6.4       0.2      26.4      27.9      29.4    422.57
    21     8  2024    52     2     275.1     1.6      0.0    0.0    1.6    0.0      3.8      0.0   -9.90      0.0      0.0    100      0.2      0.2   100      0.2     0.2     100     20.1    1.50      0      0      0      0      0    92.1    92.1      0     1.00      0.2      0.2      0.2   100    35.0     7.003    -9.9    0.000    0.000     100        0.00    0.000    0.000     275.1    275.1    1.50   180.5     632.8     174.7     130.5      64.3      64.3      36.8    0.000     0.000     0.000     0.000     0.000    1.50     0.00    0.00      0   -9.90   -9.00       13.4       12.2       12.4       12.1       12.1       11.9       11.9       11.8       11.8       11.8       11.8       11.8        0.0        0.0        0.0        0.0        0.0        0.0        0.0        0.0        0.0        0.0        0.0        0.0      1.6       0.2      26.2      28.2      30.2    422.57
    22     8  2024    53     2     272.9     1.7      0.0    0.0    1.7    0.0      3.7      0.0   -9.90      0.0      0.0    100      0.2      0.2   100      0.2     0.2     100     20.4    1.52      0      0      0      0      0    92.6    92.6      0     1.01      0.2      0.2      0.2   100    35.0     7.356    -9.9    0.000    0.000     100        0.00    0.000    0.000     272.9    272.9    1.52   180.9     641.3     177.0     132.2      65.1      65.1      37.3    0.000     0.000     0.000     0.000     0.000    1.52     0.00    0.00      0   -9.90   -9.00       13.5       11.9       11.9       11.9       11.9       11.8       11.8       11.8       11.8       11.8       11.8       11.8        0.0        0.0        0.0        0.0        0.0        0.0        0.0        0.0        0.0        0.0        0.0        0.0      1.7       0.2      26.9      28.5      30.2    422.57
    23     8  2024    54     2     271.8     1.5      0.0    0.0    1.5    0.0      2.4      0.0   -9.90      0.0      0.0    100      0.2      0.2   100      0.2     0.2     100     21.0    1.54      0      0      0      0      0    93.0    93.0      0     1.01      0.2      0.2      0.2   100    35.0     7.710    -9.9    0.000    0.000     100        0.00    0.000    0.000     271.8    271.8    1.54   182.3     649.8     179.4     134.0      66.0      66.0      37.8    0.000     0.000     0.000     0.000     0.000    1.54     0.00    0.00      0   -9.90   -9.00       13.2       11.9       11.9       11.8       11.8       11.8       11.8       11.8       11.8       11.7       11.7       11.7        0.0        0.0        0.0        0.0        0.0        0.0        0.0        0.0        0.0        0.0        0.0        0.0      1.5       0.2      28.0      29.6      31.2    422.57
    24     8  2024    55     2     270.0     0.0      0.0    0.0    0.0    0.0      1.7      0.0   -9.90      0.0      0.0    100      0.1      0.1   100      0.1     0.1     100     19.5    1.56      0      0      0      0      0    93.3    93.3      0     1.01      0.1      0.1      0.1   100    35.0     8.064    -9.9    0.000    0.000     100        0.00    0.000    0.000     270.0    270.0    1.56   182.9     658.3     181.7     135.4      66.7      66.7      38.3    0.000     0.000     0.000     0.000     0.000    1.56     0.00    0.00      0   -9.90   -9.00       11.8       11.8       11.9       11.8       11.8       11.8       11.8       11.7       11.7       11.7       11.7       11.7        0.0        0.0        0.0        0.0        0.0        0.0        0.0        0.0        0.0        0.0        0.0        0.0      0.0       0.1      26.6      27.5      28.4    422.57
    25     8  2024    56     3     268.9     0.0      0.0    0.0    0.0    0.0      0.9      0.0   -9.90      0.0      0.0    100      0.2      0.2   100      0.2     0.2     100     20.6    1.58      0      0      0      0      0    93.5    93.5      0     1.01      0.2      0.2      0.2   100    35.0     8.420    -9.9    0.000    0.000     100        0.00    0.000    0.000     268.9    268.9    1.58   184.3     666.7     184.0     137.4      67.7      67.7      38.8    0.000     0.000     0.000     0.000     0.000    1.58     0.00    0.00      0   -9.90   -9.00       11.5       11.7       11.7       11.7       11.7       11.7       11.7       11.7       11.7       11.7       11.7       11.7        0.0        0.0        0.0        0.0        0.0        0.0        0.0        0.0        0.0        0.0        0.0        0.0      0.0       0.2      27.2      28.7      30.2    422.57
    26     8  2024    57     3     268.4     0.1      0.0    0.0    0.1    0.0      0.4      0.0   -9.90      0.0      0.0    100      0.2      0.2   100      0.2     0.2     100     20.0    1.60      0      0      0      0      0    93.7    93.7      0     1.01      0.2      0.2      0.2   100    35.0     8.775    -9.9    0.000    0.000     100        0.00    0.000    0.000     268.4    268.4    1.60   186.1     675.1     186.4     139.4      68.7      68.7      39.3    0.000     0.000     0.000     0.000     0.000    1.60     0.00    0.00      0   -9.90   -9.00       11.4       11.7       11.7       11.7       11.7       11.7       11.7       11.7       11.7       11.7       11.7       11.7        0.0        0.0        0.0        0.0        0.0        0.0        0.0        0.0        0.0        0.0        0.0        0.0      0.1       0.2      26.0      28.5      31.0    422.57
    27     8  2024    58     3     270.1     2.0      0.0    0.0    2.0    0.0      0.1      0.0   -9.90      0.0      0.0    100      0.2      0.2   100      0.2     0.2     100     20.7    1.62      0      0      0      0      0    93.9    93.9      0     1.02      0.2      0.2      0.2   100    35.0     9.131     1.5    0.137    0.153     100        1.21    0.000    0.000     270.1    270.1    1.62   190.2     683.5     188.7     140.8      69.4      69.4      39.8    0.000     0.000     0.000     0.000     0.000    1.62     0.00    0.00      0   -9.90   -9.00       13.2       11.7       11.7       11.7       11.7       11.7       11.7       11.7       11.7       11.7       11.7       11.7        0.0        0.0        0.0        0.0        0.0        0.0        0.0        0.0        0.0        0.0        0.0        0.0      2.0       0.2      27.4      28.9      30.4    422.57
    28     8  2024    59     3     269.6     0.2      0.0    0.0    0.2    0.0      0.5      0.0   -9.90      0.0      0.0    100      0.2      0.2   100      0.2     0.2     100     20.9    1.64      0      0      0      0      0    94.0    94.0      0     1.02      0.2      0.2      0.2   100    35.0     9.487     1.8    0.175    0.194     100        1.51    0.000    0.000     269.6    269.6    1.64   191.9     691.8     191.0     142.5      70.2      70.2      40.3    0.000     0.000     0.000     0.000     0.000    1.64     0.00    0.00      0   -9.90   -9.00       11.8       11.8       11.8       11.8       11.7       11.7       11.7       11.7       11.7       11.7       11.7       11.7        0.0        0.0        0.0        0.0        0.0        0.0        0.0        0.0        0.0        0.0        0.0        0.0      0.2       0.2      27.8      29.0      30.3    422.57
    29     8  2024    60     3     268.8     0.0      0.0    0.0    0.0    0.0      0.6      0.0   -9.90      0.0      0.0    100      0.2      0.2   100      0.2     0.2     100     20.8    1.66      0      0      0      0      0    95.2    95.2      0     1.02      0.2      0.2      0.2   100    35.0     9.846     2.3    0.222    0.247     100        1.88    0.000    0.000     268.8    268.8    1.66   193.4     700.1     193.3     144.4      71.1      71.1      40.8    0.000     0.000     0.000     0.000     0.000    1.66     0.00    0.00      0   -9.90   -9.00       11.5       11.7       11.7       11.7       11.7       11.7       11.7       11.7       11.7       11.7       11.7       11.7        0.0        0.0        0.0        0.0        0.0        0.0        0.0        0.0        0.0        0.0        0.0        0.0      0.0       0.2      27.6      29.3      30.9    422.57
    30     8  2024    61     3     268.3     0.0      0.0    0.0    0.0    0.0      0.3      0.0   -9.90      0.0      0.0    100      0.2      0.2   100      0.2     0.2     100     20.3    1.68     -9      0      0      0      0    95.3    95.3      0     1.02      0.2      0.2      0.2   100    35.0    10.205     2.8    0.281    0.312     100        2.34    0.000    0.000     268.3    268.3    1.68   195.2     708.4     195.5     146.2      72.0      72.0      41.3    0.000     0.000     0.000     0.000     0.000    1.68     0.00    0.00      0   -9.90   -9.00       11.3       11.7       11.7       11.7       11.7       11.7       11.7       11.7       11.7       11.7       11.7       11.7        0.0        0.0        0.0        0.0        0.0        0.0        0.0        0.0        0.0        0.0        0.0        0.0      0.0       0.2      26.5      28.6      30.7    422.57
    31     8  2024    62     3     268.2     0.2      0.0    0.0    0.2    0.0      0.1      0.0   -9.90      0.0      0.0    100      0.2      0.2   100      0.2     0.2     100     20.7    1.70     -9      0      0      0      0    95.4    95.4      0     1.02      0.2      0.2      0.2   100    35.0    10.564     3.3    0.354    0.393     100        2.90    0.000    0.000     268.2    268.2    1.70   197.4     716.6     197.8     147.8      72.8      72.8      41.8    0.000     0.000     0.000     0.000     0.000    1.70     0.00    0.00      0   -9.90   -9.00       11.3       11.7       11.7       11.7       11.7       11.7       11.7       11.7       11.7       11.7       11.7       11.7        0.0        0.0        0.0        0.0        0.0        0.0        0.0        0.0        0.0        0.0        0.0        0.0      0.2       0.2      27.3      29.1      30.9    422.57
     1     9  2024    63     3     268.2     0.2      0.0    0.0    0.2    0.0      0.0      0.0   -9.90      0.0      0.0    100      0.2      0.2   100      0.2     0.2     100     20.8    1.71     -9      0      0      0      0    95.5    95.5      0     1.02      0.2      0.2      0.2   100    35.0    10.921     4.1    0.444    0.493     100        3.58    0.000    0.000     268.2    268.2    1.71   199.7     724.8     200.1     149.3      73.6      73.6      42.3    0.000     0.000     0.000     0.000     0.000    1.71     0.00    0.00      0   -9.90   -9.00       11.3       11.7       11.7       11.7       11.7       11.7       11.7       11.7       11.7       11.7       11.7       11.7        0.0        0.0        0.0        0.0        0.0        0.0        0.0        0.0        0.0        0.0        0.0        0.0      0.2       0.2      27.6      29.0      30.4    422.57
     2     9  2024    64     3     268.2     0.2      0.0    0.0    0.2    0.0      0.0      0.0   -9.90      0.0      0.0    100      0.2      0.2   100      0.2     0.2     100     20.5    1.73     -9      0      0      0      0    95.6    95.6      0     1.02      0.2      0.2      0.2   100    35.0    11.278     4.9    0.555    0.616     100        4.40    0.000    0.000     268.2    268.2    1.73   201.9     732.9     202.3     151.1      74.4      74.4      42.7    0.000     0.000     0.000     0.000     0.000    1.73     0.00    0.00      0   -9.90   -9.00       11.3       11.7       11.7       11.7       11.7       11.7       11.7       11.7       11.7       11.7       11.7       11.7        0.0        0.0        0.0        0.0        0.0        0.0        0.0        0.0        0.0        0.0        0.0        0.0      0.2       0.2      26.9      28.6      30.3    422.57
     3     9  2024    65     3     268.0     0.0      0.0    0.0    0.0    0.0      0.0      0.0   -9.90      0.0      0.0    100      0.2      0.2   100      0.2     0.2     100     20.5    1.75     -9      0      0      0      0    95.6    95.6      0     1.02      0.2      0.2      0.2   100    35.0    11.634     5.9    0.689    0.766     100        5.39    0.000    0.000     268.0    268.0    1.75   204.0     741.1     204.6     152.7      75.3      75.3      43.2    0.000     0.000     0.000     0.000     0.000    1.75     0.00    0.00      0   -9.90   -9.00       11.1       11.7       11.7       11.7       11.7       11.7       11.7       11.7       11.7       11.7       11.7       11.7        0.0        0.0        0.0        0.0        0.0        0.0        0.0        0.0        0.0        0.0        0.0        0.0      0.0       0.2      27.1      28.6      30.2    422.57
     4     9  2024    66     3     267.8     0.0      0.0    0.0    0.0    0.0      0.0      0.0   -9.90      0.0      0.0    100      0.2      0.2   100      0.2     0.2     100     20.3    1.77     -9      0      0      0      0    95.7    95.7      0     1.01      0.2      0.2      0.2   100    35.0    11.989     7.1    0.852    0.947     100        6.57    0.000    0.000     267.8    267.8    1.77   206.0     749.2     206.8     154.4      76.1      76.1      43.7    0.000     0.000     0.000     0.000     0.000    1.77     0.00    0.00      0   -9.90   -9.00       10.9       11.7       11.7       11.7       11.7       11.7       11.7       11.7       11.7       11.7       11.7       11.7        0.0        0.0        0.0        0.0        0.0        0.0        0.0        0.0        0.0        0.0        0.0        0.0      0.0       0.2      26.8      28.3      29.9    422.57
     5     9  2024    67     3     267.7     0.1      0.0    0.0    0.1    0.0      0.0      0.0   -9.90      0.0      0.0    100      0.2      0.2   100      0.2     0.2     100     20.1    1.79     -9      0      0      0      0    95.7    95.7      0     1.01      0.2      0.2      0.2   100    35.0    12.343     8.5    1.046    1.162     100        7.95    0.000    0.000     267.7    267.7    1.79   208.1     757.2     209.0     156.0      76.9      76.9      44.2    0.000     0.000     0.000     0.000     0.000    1.79     0.00    0.00      0   -9.90   -9.00       10.8       11.7       11.7       11.7       11.7       11.7       11.7       11.7       11.7       11.7       11.7       11.7        0.0        0.0        0.0        0.0        0.0        0.0        0.0        0.0        0.0        0.0        0.0        0.0      0.1       0.2      26.6      28.1      29.6    422.57
     6     9  2024    68     3     267.5     0.0      0.0    0.0    0.0    0.0      0.0      0.0   -9.90      0.0      0.0    100      0.2      0.2   100      0.2     0.2     100     19.5    1.81     -9      0      0      0      0    95.8    95.8      0     1.01      0.2      0.2      0.2   100    35.0    12.697    10.0    1.269    1.410     100        9.53    0.000    0.000     267.5    267.5    1.81   210.2     765.3     211.2     157.6      77.6      77.6      44.6    0.000     0.000     0.000     0.000     0.000    1.81     0.00    0.00      0   -9.90   -9.00       10.6       11.7       11.7       11.7       11.7       11.7       11.7       11.7       11.7       11.7       11.7       11.7        0.0        0.0        0.0        0.0        0.0        0.0        0.0        0.0        0.0        0.0        0.0        0.0      0.0       0.2      26.3      27.5      28.7    422.57
     7     9  2024    69     4     267.4     0.0      0.0    0.0    0.0    0.0      0.0      0.0   -9.90      0.0      0.0    100      0.2      0.2   100      0.2     0.2     100     19.4    1.83     -9      0      0      0      0    95.8    95.8      0     1.01      0.2      0.2      0.2   100    35.0    13.049    11.5    1.502    1.669     100       11.13    0.000    0.000     267.4    267.4    1.83   212.2     773.3     213.5     159.3      78.5      78.5      45.1    0.000     0.000     0.000     0.000     0.000    1.83     0.00    0.00      0   -9.90   -9.00       10.5       11.7       11.7       11.7       11.7       11.7       11.7       11.7       11.7       11.7       11.7       11.7        0.0        0.0        0.0        0.0        0.0        0.0        0.0        0.0        0.0        0.0        0.0        0.0      0.0       0.2      26.0      27.4      28.9    422.57
     8     9  2024    70     4     267.2     0.0      0.0    0.0    0.0    0.0      0.0      0.0   -9.90      0.0      0.0    100      0.2      0.2   100      0.2     0.2     100     19.5    1.85     -9      0      0      0      0    95.8    95.8      0     1.00      0.2      0.2      0.2   100    35.0    13.401    13.0    1.747    1.941     100       12.73    0.000    0.000     267.2    267.2    1.85   214.2     781.3     215.7     161.2      79.5      79.5      45.6    0.000     0.000     0.000     0.000     0.000    1.85     0.00    0.00      0   -9.90   -9.00       10.3       11.7       11.7       11.7       11.7       11.7       11.7       11.7       11.7       11.7       11.7       11.7        0.0        0.0        0.0        0.0        0.0        0.0        0.0        0.0        0.0        0.0        0.0        0.0      0.0       0.2      25.2      27.5      29.7    422.57
     9     9  2024    71     4     267.2     0.3      0.0    0.0    0.3    0.0      0.0      0.0   -9.90      0.0      0.0    100      0.2      0.2   100      0.2     0.2     100     20.1    1.87     -9      0      0      0      0    95.9    95.9      0     1.00      0.2      0.2      0.2   100    35.0    13.751    14.6    2.001    2.224     100       14.37    0.000    0.000     267.2    267.2    1.87   216.5     789.2     217.9     162.7      80.2      80.2      46.1    0.000     0.000     0.000     0.000     0.000    1.87     0.00    0.00      0   -9.90   -9.00       10.3       11.7       11.7       11.7       11.7       11.7       11.7       11.7       11.7       11.7       11.7       11.7        0.0        0.0        0.0        0.0        0.0        0.0        0.0        0.0        0.0        0.0        0.0        0.0      0.3       0.2      26.4      28.1      29.8    422.57
    10     9  2024    72     4     268.4     1.4      0.0    0.0    1.4    0.0      0.0      0.0   -9.90      0.0      0.0    100      0.2      0.2   100      0.3     0.3     100     20.1    1.89     -9      0      0      0      0    95.9    95.9      0     1.00      0.2      0.2      0.2   100    35.0    14.101    16.1    2.267    2.518     100       15.99    0.000    0.000     268.4    268.4    1.89   219.8     797.2     220.0     164.7      81.2      81.2      46.5    0.000     0.000     0.000     0.000     0.000    1.89     0.00    0.00      0   -9.90   -9.00       11.5       11.7       11.7       11.7       11.7       11.7       11.7       11.7       11.7       11.7       11.7       11.7        0.0        0.0        0.0        0.0        0.0        0.0        0.0        0.0        0.0        0.0        0.0        0.0      1.4       0.2      26.2      29.1      31.9    422.57
    11     9  2024    73     4     272.0     3.8      0.0    0.0    3.8    0.0      0.0      0.0   -9.90      0.0      0.0    100      0.2      0.2   100      0.2     0.2     100     20.6    1.90     -9      0      0      0      0    95.9    95.9      0     0.99      0.2      0.2      0.2   100    35.0    14.449    17.6    2.542    2.825     100       17.70    0.000    0.000     272.0    272.0    1.90   225.6     805.1     222.2     165.9      81.8      81.8      47.0    0.000     0.000     0.000     0.000     0.000    1.90     0.00    0.00      0   -9.90   -9.00       15.2       11.7       11.7       11.7       11.7       11.7       11.7       11.7       11.7       11.7       11.7       11.7        0.0        0.0        0.0        0.0        0.0        0.0        0.0        0.0        0.0        0.0        0.0        0.0      3.8       0.2      27.3      28.9      30.5    422.57
    12     9  2024    74     4     271.5     0.9      0.0    0.0    0.9    0.0      1.1      0.0   -9.90      0.0      0.0    100      0.2      0.2   100      0.2     0.2     100     20.2    1.92     -9      0      0      0      0    95.9    95.9      0     0.99      0.2      0.2      0.2   100    35.0    14.797    19.1    2.828    3.143     100       19.41    0.000    0.000     271.5    271.5    1.92   227.3     813.0     224.4     167.7      82.7      82.7      47.5    0.000     0.000     0.000     0.000     0.000    1.92     0.00    0.00      0   -9.90   -9.00       12.5       12.0       12.0       12.0       11.8       11.8       11.8       11.7       11.7       11.7       11.7       11.7        0.0        0.0        0.0        0.0        0.0        0.0        0.0        0.0        0.0        0.0        0.0        0.0      0.9       0.2      26.5      28.4      30.4    422.57
    13     9  2024    75     4     269.8     0.0      0.0    0.0    0.0    0.0      1.6      0.0   -9.90      0.0      0.0    100      0.2      0.2   100      0.2     0.2     100     19.8    1.94     -9      0      0      0      0    95.9    95.9      0     0.99      0.2      0.2      0.2   100    35.0    15.144    20.6    3.125    3.472     100       21.17    0.000    0.000     269.8    269.8    1.94   227.7     820.8     226.6     169.2      83.4      83.4      47.9    0.000     0.000     0.000     0.000     0.000    1.94     0.00    0.00      0   -9.90   -9.00       11.6       11.8       11.8       11.8       11.8       11.8       11.8       11.7       11.7       11.7       11.7       11.7        0.0        0.0        0.0        0.0        0.0        0.0        0.0        0.0        0.0        0.0        0.0        0.0      0.0       0.2      26.1      27.8      29.5    422.57
    14     9  2024    76     4     268.7     0.0      0.0    0.0    0.0    0.0      0.9      0.0   -9.90      0.0      0.0    100      0.2      0.2   100      0.2     0.2     100     20.3    1.96     -9      0     -9      0      0    95.3    95.3      0     0.98      0.2      0.2      0.2   100    35.0    15.486    22.2    3.431    3.812     100       22.90    0.000    0.000     268.7    268.7    1.96   228.8     828.6     228.7     171.0      84.3      84.3      48.4    0.000     0.000     0.000     0.000     0.000    1.96     0.00    0.00      0   -9.90   -9.00       11.4       11.7       11.7       11.7       11.7       11.7       11.7       11.7       11.7       11.7       11.7       11.7        0.0        0.0        0.0        0.0        0.0        0.0        0.0        0.0        0.0        0.0        0.0        0.0      0.0       0.2      26.5      28.7      30.8    422.57
    15     9  2024    77     4     272.2     3.9      0.0    0.0    3.9    0.0      0.3      0.0   -9.90      0.0      0.0    100      0.2      0.2   100      0.2     0.2     100     19.4    1.98     -9      0     -9      0      0    94.6    94.6      0     0.96      0.2      0.2      0.2   100    35.0    15.823    23.7    3.746    4.162     100       24.75    0.000    0.000     272.2    272.2    1.98   234.4     836.4     230.9     172.2      84.9      84.9      48.8    0.000     0.000     0.000     0.000     0.000    1.98     0.00    0.00      0   -9.90   -9.00       15.2       11.7       11.7       11.7       11.7       11.7       11.7       11.7       11.7       11.7       11.7       11.7        0.0        0.0        0.0        0.0        0.0        0.0        0.0        0.0        0.0        0.0        0.0        0.0      3.9       0.2      26.3      27.4      28.6    422.57
    16     9  2024    78     4     272.7     1.9      0.0    0.0    1.9    0.0      1.2      0.0   -9.90      0.0      0.0    100      0.2      0.2   100      0.2     0.2     100     20.1    2.00     -9      0     -9      0      0    93.9    93.9      0     0.95      0.2      0.2      0.2   100    35.0    16.155    25.2    4.070    4.523     100       26.58    0.000    0.000     272.7    272.7    2.00   237.1     844.2     233.0     174.0      85.8      85.8      49.3    0.000     0.000     0.000     0.000     0.000    2.00     0.00    0.00      0   -9.90   -9.00       13.8       12.0       12.0       11.9       11.8       11.8       11.8       11.7       11.7       11.7       11.7       11.7        0.0        0.0        0.0        0.0        0.0        0.0        0.0        0.0        0.0        0.0        0.0        0.0      1.9       0.2      26.5      28.1      29.6    422.57
    17     9  2024    79     4     271.7     1.1      0.0    0.0    1.1    0.0      2.0      0.0   -9.90      0.0      0.0    100      0.1      0.1   100      0.1     0.1     100     19.1    2.01     -9      0     -9      0      0    93.0    93.0      0     0.93      0.1      0.1      0.1   100    35.0    16.481    26.7    4.403    4.892     100       28.53    0.000    0.000     271.7    271.7    2.01   238.2     852.0     235.2     175.2      86.3      86.3      49.8    0.000     0.000     0.000     0.000     0.000    2.01     0.00    0.00      0   -9.90   -9.00       12.9       11.9       11.9       11.9       11.8       11.8       11.8       11.8       11.7       11.7       11.7       11.7        0.0        0.0        0.0        0.0        0.0        0.0        0.0        0.0        0.0        0.0        0.0        0.0      1.1       0.1      26.4      27.1      27.9    422.57
    18     9  2024    80     4     279.2     9.5      0.0    0.0    9.3    0.1      1.7      0.0   -9.90      0.0      0.0    100      0.2      0.2   100      0.2     0.2     100     19.6    2.03     -9      0     -9      0      0    92.0    92.0      0     0.91      0.2      0.2      0.2   100    35.0    16.801    28.2    4.744    5.271     100       30.42    0.000    0.000     279.2    279.2    2.03   247.9     859.7     237.3     177.1      87.3      87.3      50.2    0.000     0.000     0.000     0.000     0.000    2.03     0.00    0.00      0   -9.90   -9.00       21.2       11.8       11.8       11.8       11.8       11.8       11.8       11.7       11.7       11.7       11.7       11.7        0.0        0.0        0.0        0.0        0.0        0.0        0.0        0.0        0.0        0.0        0.0        0.0      9.5       0.2      26.2      27.6      29.0    422.57
    19     9  2024    81     4     275.1     0.2      0.0    0.0    0.2    0.0      4.3      0.0   -9.90      0.0      0.0    100      0.1      0.1   100      0.1     0.1     100     19.7    2.05     -9      0     -9      0      0    90.9    90.9      0     0.89      0.1      0.1      0.1   100    35.0    17.113    29.8    5.092    5.658     100       32.34    0.000    0.000     275.1    275.1    2.05   245.7     867.4     239.4     178.6      88.0      88.0      50.7    0.000     0.000     0.000     0.000     0.000    2.05     0.00    0.00      0   -9.90   -9.00       12.5       12.4       12.6       12.2       12.0       11.9       11.9       11.9       11.8       11.8       11.8       11.8        0.0        0.0        0.0        0.0        0.0        0.0        0.0        0.0        0.0        0.0        0.0        0.0      0.2       0.2      26.5      27.7      28.9    422.57
    20     9  2024    82     4     271.6     0.6      0.0    0.0    0.6    0.0      3.9      0.0   -9.90      0.0      0.0    100      0.2      0.2   100      0.2     0.2     100     19.7    2.07     -9      0     -9      0      0    89.6    89.6      0     0.87      0.2      0.2      0.2   100    35.0    17.418    31.3    5.448    6.053     100       34.22    0.000    0.000     271.6    271.6    2.07   244.4     875.1     241.5     180.4      89.0      89.0      51.1    0.000     0.000     0.000     0.000     0.000    2.07     0.00    0.00      0   -9.90   -9.00       12.2       11.8       11.9       11.9       11.9       11.8       11.8       11.8       11.8       11.8       11.8       11.8        0.0        0.0        0.0        0.0        0.0        0.0        0.0        0.0        0.0        0.0        0.0        0.0      0.6       0.2      26.0      27.7      29.4    422.57
    21     9  2024    83     4     269.4     0.0      0.0    0.0    0.0    0.0      2.0      0.0   -9.90      0.0      0.0    100      0.2      0.2   100      0.2     0.2     100     19.9    2.09     -9      0     -9      0      0    88.2    88.2      0     0.84      0.2      0.2      0.2   100    35.0    17.714    32.8    5.810    6.455     100       36.09    0.000    0.000     269.4    269.4    2.09   244.5     882.8     243.7     182.0      89.8      89.8      51.6    0.000     0.000     0.000     0.000     0.000    2.09     0.00    0.00      0   -9.90   -9.00       11.6       11.8       11.8       11.8       11.8       11.8       11.7       11.7       11.7       11.7       11.7       11.7        0.0        0.0        0.0        0.0        0.0        0.0        0.0        0.0        0.0        0.0        0.0        0.0      0.0       0.2      26.1      27.9      29.8    422.57
    22     9  2024    84     4     276.3     7.7      0.0    0.0    7.7    0.0      0.7      0.0   -9.90      0.0      0.0    100      0.2      0.2   100      0.2     0.2     100     20.0    2.10     -9      0     -9      0      0    86.6    86.6      0     0.82      0.2      0.2      0.2   100    35.0    18.001    34.3    6.177    6.864     100       37.95    0.000    0.000     276.3    276.3    2.10   253.4     890.4     245.8     183.6      90.6      90.6      52.0    0.000     0.000     0.000     0.000     0.000    2.10     0.00    0.00      0   -9.90   -9.00       19.2       11.7       11.7       11.7       11.7       11.7       11.7       11.7       11.7       11.7       11.7       11.7        0.0        0.0        0.0        0.0        0.0        0.0        0.0        0.0        0.0        0.0        0.0        0.0      7.7       0.2      26.2      28.0      29.9    422.57
    23     9  2024    85     4     278.6     5.3      0.0    0.0    5.3    0.0      2.8      0.0   -9.90      0.0      0.0    100      0.2      0.2   100      0.2     0.2     100     19.9    2.12     -9      0     -9      0      0    84.8    84.8      0     0.79      0.2      0.2      0.2   100    35.0    18.277    35.8    6.550    7.278     100       39.70    0.000    0.000     278.6    278.6    2.12   257.8     898.0     247.9     185.6      91.6      91.6      52.5    0.000     0.000     0.000     0.000     0.000    2.12     0.00    0.00      0   -9.90   -9.00       17.6       12.3       12.4       12.1       11.9       11.9       11.8       11.8       11.8       11.8       11.8       11.7        0.0        0.0        0.0        0.0        0.0        0.0        0.0        0.0        0.0        0.0        0.0        0.0      5.3       0.3      25.9      28.9      31.9    422.57
    24     9  2024    86     4     276.0     2.3      0.0    0.0    2.3    0.0      4.7      0.0   -9.90      0.0      0.0    100      0.1      0.1   100      0.2     0.2     100     19.9    2.14     -9      0     -9      0      0    82.8    82.8      0     0.76      0.1      0.1      0.1   100    35.0    18.542    37.4    6.927    7.697     100       41.60    0.000    0.000     276.0    276.0    2.14   257.3     905.6     250.0     186.6      92.0      92.0      52.9    0.000     0.000     0.000     0.000     0.000    2.14     0.00    0.00      0   -9.90   -9.00       14.2       12.2       12.3       12.1       12.0       11.9       11.9       11.9       11.8       11.8       11.8       11.8        0.0        0.0        0.0        0.0        0.0        0.0        0.0        0.0        0.0        0.0        0.0        0.0      2.3       0.2      26.5      27.9      29.4    422.57
    25     9  2024    87     4     275.2     3.4      0.0    0.0    3.4    0.0      4.1      0.0   -9.90      0.0      0.0    100      0.1      0.1   100      0.2     0.2     100     19.5    2.16     -9      0     -9      0      0    80.5    80.5      0     0.72      0.1      0.1      0.1   100    35.0    18.795    38.9    7.307    8.119     100       43.45    0.000    0.000     275.2    275.2    2.16   258.6     913.2     252.1     188.3      92.9      92.9      53.4    0.000     0.000     0.000     0.000     0.000    2.16     0.00    0.00      0   -9.90   -9.00       15.4       12.0       12.0       11.9       11.9       11.9       11.8       11.8       11.8       11.8       11.8       11.8        0.0        0.0        0.0        0.0        0.0        0.0        0.0        0.0        0.0        0.0        0.0        0.0      3.4       0.2      25.7      27.5      29.3    422.57
[...]
    10    12  2025    -9     0     268.2     0.0      0.0    0.0    0.0    0.0      0.1      0.0   -9.90      0.3      0.3     95      0.0      0.0   100      0.3     0.3      95     15.7    2.28     -9     -9     -9      0     -9     0.0     0.0      0    -9.00      0.0      0.0      0.0   100    35.1    20.220    48.0    9.706   10.784     100       52.82    0.000    0.000     268.2    268.2    2.28   266.2     965.7     266.5     199.3      98.5      98.3      56.5    0.000     0.000     0.000     0.000     0.000    2.28     0.00    0.00      0   -9.90   -9.00       11.3       11.7       11.7       11.7       11.7       11.7       11.7       11.7       11.7       11.7       11.7       11.7        0.0        0.0        0.0        0.0        0.0        0.0        0.0        0.0        0.0        0.0        0.0        0.0      0.0       0.3      19.9      23.7      27.5    424.57
    11    12  2025    -9     0     267.9     0.0      0.0    0.0    0.0    0.0      0.0      0.0   -9.90      0.3      0.3     88      0.0      0.0   100      0.3     0.3      88     15.7    2.28     -9     -9     -9      0     -9     0.0     0.0      0    -9.00      0.0      0.0      0.0   100    35.1    20.220    48.0    9.706   10.784     100       52.82    0.000    0.000     267.9    267.9    2.28   265.9     965.7     266.5     199.3      98.6      98.3      56.5    0.000     0.000     0.000     0.000     0.000    2.28     0.00    0.00      0   -9.90   -9.00       11.0       11.7       11.7       11.7       11.7       11.7       11.7       11.7       11.7       11.7       11.7       11.7        0.0        0.0        0.0        0.0        0.0        0.0        0.0        0.0        0.0        0.0        0.0        0.0      0.0       0.3      19.3      23.7      28.2    424.57
    12    12  2025    -9     0     267.7     0.0      0.0    0.0    0.0    0.0      0.0      0.0   -9.90      0.3      0.2     82      0.0      0.0   100      0.3     0.2      82     15.5    2.28     -9     -9     -9      0     -9     0.0     0.0      0    -9.00      0.0      0.0      0.0   100    35.1    20.220    48.0    9.706   10.784     100       52.82    0.000    0.000     267.7    267.7    2.28   265.6     965.7     266.5     199.3      98.6      98.3      56.5    0.000     0.000     0.000     0.000     0.000    2.28     0.00    0.00      0   -9.90   -9.00       10.8       11.7       11.7       11.7       11.7       11.7       11.7       11.7       11.7       11.7       11.7       11.7        0.0        0.0        0.0        0.0        0.0        0.0        0.0        0.0        0.0        0.0        0.0        0.0      0.0       0.3      19.3      23.5      27.7    424.57
    13    12  2025    -9     0     267.5     0.0      0.0    0.0    0.0    0.0      0.0      0.0   -9.90      0.2      0.2     78      0.0      0.0   100      0.2     0.2      78     14.4    2.28     -9     -9     -9      0     -9     0.0     0.0      0    -9.00      0.0      0.0      0.0   100    35.1    20.220    48.0    9.706   10.784     100       52.82    0.000    0.000     267.5    267.5    2.28   265.4     965.7     266.5     199.3      98.3      98.3      56.5    0.000     0.000     0.000     0.000     0.000    2.28     0.00    0.00      0   -9.90   -9.00       10.6       11.7       11.7       11.7       11.7       11.7       11.7       11.7       11.7       11.7       11.7       11.7        0.0        0.0        0.0        0.0        0.0        0.0        0.0        0.0        0.0        0.0        0.0        0.0      0.0       0.2      19.3      22.4      25.4    424.57
    14    12  2025    -9     0     267.3     0.0      0.0    0.0    0.0    0.0      0.0      0.0   -9.90      0.2      0.2     74      0.0      0.0   100      0.2     0.2      74     12.9    2.28     -9     -9     -9      0     -9     0.0     0.0      0    -9.00      0.0      0.0      0.0   100    35.1    20.220    48.0    9.706   10.784     100       52.82    0.000    0.000     267.3    267.3    2.28   265.3     965.7     266.5     199.3      98.2      98.3      56.5    0.000     0.000     0.000     0.000     0.000    2.28     0.00    0.00      0   -9.90   -9.00       10.4       11.7       11.7       11.7       11.7       11.7       11.7       11.7       11.7       11.7       11.7       11.7        0.0        0.0        0.0        0.0        0.0        0.0        0.0        0.0        0.0        0.0        0.0        0.0      0.0       0.2      18.5      20.9      23.3    424.57
    15    12  2025    -9     0     267.1     0.0      0.0    0.0    0.0    0.0      0.0      0.0   -9.90      0.3      0.2     71      0.0      0.0   100      0.3     0.2      71     13.0    2.28     -9     -9     -9      0     -9     0.0     0.0      0    -9.00      0.0      0.0      0.0   100    35.1    20.220    48.0    9.706   10.784     100       52.82    0.000    0.000     267.1    267.1    2.28   265.1     965.7     266.5     199.3      98.5      98.3      56.5    0.000     0.000     0.000     0.000     0.000    2.28     0.00    0.00      0   -9.90   -9.00       10.2       11.7       11.7       11.7       11.7       11.7       11.7       11.7       11.7       11.7       11.7       11.7        0.0        0.0        0.0        0.0        0.0        0.0        0.0        0.0        0.0        0.0        0.0        0.0      0.0       0.3      16.6      21.0      25.4    424.57
    16    12  2025    -9     0     266.9     0.0      0.0    0.0    0.0    0.0      0.0      0.0   -9.90      0.3      0.2     67      0.0      0.0   100      0.3     0.2      67     14.4    2.28     -9     -9     -9      0     -9     0.0     0.0      0    -9.00      0.0      0.0      0.0   100    35.1    20.220    48.0    9.706   10.784     100       52.82    0.000    0.000     266.9    266.9    2.28   264.9     965.7     266.5     199.3      98.6      98.3      56.5    0.000     0.000     0.000     0.000     0.000    2.28     0.00    0.00      0   -9.90   -9.00       10.0       11.7       11.7       11.7       11.7       11.7       11.7       11.7       11.7       11.7       11.7       11.7        0.0        0.0        0.0        0.0        0.0        0.0        0.0        0.0        0.0        0.0        0.0        0.0      0.0       0.3      17.8      22.4      27.1    424.57
    17    12  2025    -9     0     266.7     0.0      0.0    0.0    0.0    0.0      0.0      0.0   -9.90      0.3      0.2     64      0.0      0.0   100      0.3     0.2      64     13.8    2.28     -9     -9     -9      0     -9     0.0     0.0      0    -9.00      0.0      0.0      0.0   100    35.1    20.220    48.0    9.706   10.784     100       52.82    0.000    0.000     266.7    266.7    2.28   264.7     965.7     266.5     199.3      98.5      98.3      56.5    0.000     0.000     0.000     0.000     0.000    2.28     0.00    0.00      0   -9.90   -9.00        9.8       11.7       11.7       11.7       11.7       11.7       11.7       11.7       11.7       11.7       11.7       11.7        0.0        0.0        0.0        0.0        0.0        0.0        0.0        0.0        0.0        0.0        0.0        0.0      0.0       0.3      17.8      21.8      25.8    424.57
    18    12  2025    -9     0     266.6     0.0      0.0    0.0    0.0    0.0      0.0      0.0   -9.90      0.2      0.1     61      0.0      0.0   100      0.2     0.1      61     13.2    2.28     -9     -9     -9      0     -9     0.0     0.0      0    -9.00      0.0      0.0      0.0   100    35.1    20.220    48.0    9.706   10.784     100       52.82    0.000    0.000     266.6    266.6    2.28   264.5     965.7     266.5     199.3      98.3      98.3      56.5    0.000     0.000     0.000     0.000     0.000    2.28     0.00    0.00      0   -9.90   -9.00        9.6       11.7       11.7       11.7       11.7       11.7       11.7       11.7       11.7       11.7       11.7       11.7        0.0        0.0        0.0        0.0        0.0        0.0        0.0        0.0        0.0        0.0        0.0        0.0      0.0       0.2      18.3      21.2      24.2    424.57
    19    12  2025    -9     0     266.4     0.0      0.0    0.0    0.0    0.0      0.0      0.0   -9.90      0.3      0.2     59      0.0      0.0   100      0.3     0.2      59     13.2    2.28     -9     -9     -9      0     -9     0.0     0.0      0    -9.00      0.0      0.0      0.0   100    35.1    20.220    48.0    9.706   10.784     100       52.82    0.000    0.000     266.4    266.4    2.28   264.4     965.7     266.5     199.3      98.5      98.3      56.5    0.000     0.000     0.000     0.000     0.000    2.28     0.00    0.00      0   -9.90   -9.00        9.5       11.7       11.7       11.7       11.7       11.7       11.7       11.7       11.7       11.7       11.7       11.7        0.0        0.0        0.0        0.0        0.0        0.0        0.0        0.0        0.0        0.0        0.0        0.0      0.0       0.3      17.1      21.2      25.3    424.57
    20    12  2025    -9     0     266.2     0.0      0.0    0.0    0.0    0.0      0.0      0.0   -9.90      0.3      0.2     56      0.0      0.0   100      0.3     0.2      56     13.9    2.28     -9     -9     -9      0     -9     0.0     0.0      0    -9.00      0.0      0.0      0.0   100    35.1    20.220    48.0    9.706   10.784     100       52.82    0.000    0.000     266.2    266.2    2.28   264.2     965.7     266.5     199.3      98.6      98.3      56.5    0.000     0.000     0.000     0.000     0.000    2.28     0.00    0.00      0   -9.90   -9.00        9.3       11.7       11.7       11.7       11.7       11.7       11.7       11.7       11.7       11.7       11.7       11.7        0.0        0.0        0.0        0.0        0.0        0.0        0.0        0.0        0.0        0.0        0.0        0.0      0.0       0.3      17.3      21.9      26.5    424.57
    21    12  2025    -9     0     266.1     0.0      0.0    0.0    0.0    0.0      0.0      0.0   -9.90      0.3      0.2     54      0.0      0.0   100      0.3     0.2      54     13.8    2.28     -9     -9     -9      0     -9     0.0     0.0      0    -9.00      0.0      0.0      0.0   100    35.1    20.220    48.0    9.706   10.784     100       52.82    0.000    0.000     266.1    266.1    2.28   264.0     965.7     266.5     199.3      98.6      98.3      56.5    0.000     0.000     0.000     0.000     0.000    2.28     0.00    0.00      0   -9.90   -9.00        9.1       11.7       11.7       11.7       11.7       11.7       11.7       11.7       11.7       11.7       11.7       11.7        0.0        0.0        0.0        0.0        0.0        0.0        0.0        0.0        0.0        0.0        0.0        0.0      0.0       0.3      17.1      21.8      26.5    424.57
    22    12  2025    -9     0     265.9     0.0      0.0    0.0    0.0    0.0      0.0      0.0   -9.90      0.3      0.1     51      0.0      0.0   100      0.3     0.1      51     14.4    2.28     -9     -9     -9      0     -9     0.0     0.0      0    -9.00      0.0      0.0      0.0   100    35.1    20.220    48.0    9.706   10.784     100       52.82    0.000    0.000     265.9    265.9    2.28   263.9     965.7     266.5     199.3      98.5      98.3      56.5    0.000     0.000     0.000     0.000     0.000    2.28     0.00    0.00      0   -9.90   -9.00        9.0       11.7       11.7       11.7       11.7       11.7       11.7       11.7       11.7       11.7       11.7       11.7        0.0        0.0        0.0        0.0        0.0        0.0        0.0        0.0        0.0        0.0        0.0        0.0      0.0       0.2      18.5      22.4      26.2    424.57
    23    12  2025    -9     0     265.8     0.0      0.0    0.0    0.0    0.0      0.0      0.0   -9.90      0.3      0.1     50      0.0      0.0   100      0.3     0.1      50     14.4    2.28     -9     -9     -9      0     -9     0.0     0.0      0    -9.00      0.0      0.0      0.0   100    35.1    20.220    48.0    9.706   10.784     100       52.82    0.000    0.000     265.8    265.8    2.28   263.7     965.7     266.5     199.3      98.5      98.3      56.5    0.000     0.000     0.000     0.000     0.000    2.28     0.00    0.00      0   -9.90   -9.00        8.9       11.7       11.7       11.7       11.7       11.7       11.7       11.7       11.7       11.7       11.7       11.7        0.0        0.0        0.0        0.0        0.0        0.0        0.0        0.0        0.0        0.0        0.0        0.0      0.0       0.2      18.8      22.4      26.0    424.57
    24    12  2025    -9     0     265.7     0.0      0.0    0.0    0.0    0.0      0.0      0.0   -9.90      0.2      0.1     48      0.0      0.0   100      0.2     0.1      48     14.3    2.28     -9     -9     -9      0     -9     0.0     0.0      0    -9.00      0.0      0.0      0.0   100    35.1    20.220    48.0    9.706   10.784     100       52.82    0.000    0.000     265.7    265.7    2.28   263.6     965.7     266.5     199.3      98.3      98.3      56.5    0.000     0.000     0.000     0.000     0.000    2.28     0.00    0.00      0   -9.90   -9.00        8.7       11.7       11.7       11.7       11.7       11.7       11.7       11.7       11.7       11.7       11.7       11.7        0.0        0.0        0.0        0.0        0.0        0.0        0.0        0.0        0.0        0.0        0.0        0.0      0.0       0.2      19.7      22.3      24.9    424.57
    25    12  2025    -9     0     265.6     0.0      0.0    0.0    0.0    0.0      0.0      0.0   -9.90      0.2      0.1     47      0.0      0.0   100      0.2     0.1      47     13.6    2.28     -9     -9     -9      0     -9     0.0     0.0      0    -9.00      0.0      0.0      0.0   100    35.1    20.220    48.0    9.706   10.784     100       52.82    0.000    0.000     265.6    265.6    2.28   263.5     965.7     266.5     199.3      98.1      98.3      56.5    0.000     0.000     0.000     0.000     0.000    2.28     0.00    0.00      0   -9.90   -9.00        8.7       11.7       11.7       11.7       11.7       11.7       11.7       11.7       11.7       11.7       11.7       11.7        0.0        0.0        0.0        0.0        0.0        0.0        0.0        0.0        0.0        0.0        0.0        0.0      0.0       0.2      19.6      21.6      23.7    424.57
    26    12  2025    -9     0     265.3     0.0      0.0    0.0    0.0    0.0      0.0      0.0   -9.90      0.3      0.3     97      0.0      0.0   100      0.3     0.3      97     12.9    2.28     -9     -9     -9      0     -9     0.0     0.0      0    -9.00      0.0      0.0      0.0   100    35.1    20.220    48.0    9.706   10.784     100       52.82    0.000    0.000     265.3    265.3    2.28   263.3     965.7     266.5     199.3      98.5      98.3      56.5    0.000     0.000     0.000     0.000     0.000    2.28     0.00    0.00      0   -9.90   -9.00        8.4       11.7       11.7       11.7       11.7       11.7       11.7       11.7       11.7       11.7       11.7       11.7        0.0        0.0        0.0        0.0        0.0        0.0        0.0        0.0        0.0        0.0        0.0        0.0      0.0       0.2      17.1      20.9      24.8    424.57
    27    12  2025    -9     0     265.1     0.0      0.0    0.0    0.0    0.0      0.0      0.0   -9.90      0.3      0.3     89      0.0      0.0   100      0.3     0.3      89     12.9    2.28     -9     -9     -9      0     -9     0.0     0.0      0    -9.00      0.0      0.0      0.0   100    35.1    20.220    48.0    9.706   10.784     100       52.82    0.000    0.000     265.1    265.1    2.28   263.0     965.7     266.5     199.3      98.5      98.3      56.5    0.000     0.000     0.000     0.000     0.000    2.28     0.00    0.00      0   -9.90   -9.00        8.1       11.7       11.7       11.7       11.7       11.7       11.7       11.7       11.7       11.7       11.7       11.7        0.0        0.0        0.0        0.0        0.0        0.0        0.0        0.0        0.0        0.0        0.0        0.0      0.0       0.3      16.6      20.9      25.2    424.57
    28    12  2025    -9     0     264.8     0.0      0.0    0.0    0.0    0.0      0.0      0.0   -9.90      0.3      0.2     82      0.0      0.0   100      0.3     0.2      82     13.5    2.28     -9     -9     -9      0     -9     0.0     0.0      0    -9.00      0.0      0.0      0.0   100    35.1    20.220    48.0    9.706   10.784     100       52.82    0.000    0.000     264.8    264.8    2.28   262.8     965.7     266.5     199.3      98.6      98.3      56.5    0.000     0.000     0.000     0.000     0.000    2.28     0.00    0.00      0   -9.90   -9.00        7.9       11.7       11.7       11.7       11.7       11.7       11.7       11.7       11.7       11.7       11.7       11.7        0.0        0.0        0.0        0.0        0.0        0.0        0.0        0.0        0.0        0.0        0.0        0.0      0.0       0.3      16.8      21.5      26.2    424.57
    29    12  2025    -9     0     264.6     0.0      0.0    0.0    0.0    0.0      0.0      0.0   -9.90      0.3      0.2     76      0.0      0.0   100      0.3     0.2      76     15.1    2.28     -9     -9     -9      0     -9     0.0     0.0      0    -9.00      0.0      0.0      0.0   100    35.1    20.220    48.0    9.706   10.784     100       52.82    0.000    0.000     264.6    264.6    2.28   262.5     965.7     266.5     199.3      98.7      98.3      56.5    0.000     0.000     0.000     0.000     0.000    2.28     0.00    0.00      0   -9.90   -9.00        7.6       11.7       11.7       11.7       11.7       11.7       11.7       11.7       11.7       11.7       11.7       11.7        0.0        0.0        0.0        0.0        0.0        0.0        0.0        0.0        0.0        0.0        0.0        0.0      0.0       0.3      18.1      23.1      28.1    424.57
    30    12  2025    -9     0     264.4     0.0      0.0    0.0    0.0    0.0      0.0      0.0   -9.90      0.3      0.2     70      0.0      0.0   100      0.3     0.2      70     16.4    2.28     -9     -9     -9      0     -9     0.0     0.0      0    -9.00      0.0      0.0      0.0   100    35.1    20.220    48.0    9.706   10.784     100       52.82    0.000    0.000     264.4    264.4    2.28   262.3     965.7     266.5     199.3      98.6      98.3      56.5    0.000     0.000     0.000     0.000     0.000    2.28     0.00    0.00      0   -9.90   -9.00        7.4       11.7       11.7       11.7       11.7       11.7       11.7       11.7       11.7       11.7       11.7       11.7        0.0        0.0        0.0        0.0        0.0        0.0        0.0        0.0        0.0        0.0        0.0        0.0      0.0       0.3      20.1      24.4      28.7    424.57
    31    12  2025    -9     0     264.2     0.0      0.0    0.0    0.0    0.0      0.0      0.0   -9.90      0.3      0.2     66      0.0      0.0   100      0.3     0.2      66     17.2    2.28     -9     -9     -9      0     -9     0.0     0.0      0    -9.00      0.0      0.0      0.0   100    35.1    20.220    48.0    9.706   10.784     100       52.82    0.000    0.000     264.2    264.2    2.28   262.1     965.7     266.5     199.3      98.7      98.3      56.5    0.000     0.000     0.000     0.000     0.000    2.28     0.00    0.00      0   -9.90   -9.00        7.2       11.7       11.7       11.7       11.7       11.7       11.7       11.7       11.7       11.7       11.7       11.7        0.0        0.0        0.0        0.0        0.0        0.0        0.0        0.0        0.0        0.0        0.0        0.0      0.0       0.3      20.6      25.2      29.9    424.57
