AquaCrop 7.1 (August 2023) - Output created on (date) : 29-01-2026   at (time) : 01:20:23

   Run:   1
   Day Month  Year   DAP Stage   WC(2.30)   Rain     Irri   Surf   Infilt   RO    Drain       CR    Zgwt       Ex       E     E/Ex     Trx       Tr  Tr/Trx    ETx      ET  ET/ETx      GD       Z     StExp  StSto  StSen StSalt StWeed   CC      CCw     StTr  Kc(Tr)     Trx       Tr      TrW  Tr/Trx   WP    Biomass     HI    Y(dry)  Y(fresh)  Brelative    WPet      Bin     Bout  WC(2.30) Wr(2.30)     Z       Wr    Wr(SAT)    Wr(FC)   Wr(exp)   Wr(sto)   Wr(sen)   Wr(PWP)    SaltIn    SaltOut   SaltUp   Salt(2.30)  SaltZ     Z       ECe    ECsw   StSalt  Zgwt    ECgw       WC01       WC 2       WC 3       WC 4       WC 5       WC 6       WC 7       WC 8       WC 9       WC10       WC11       WC12      ECe01      ECe 2      ECe 3      ECe 4      ECe 5      ECe 6      ECe 7      ECe 8      ECe 9      ECe10      ECe11      ECe12     Rain       ETo      Tmin      Tavg      Tmax      CO2
                                      mm      mm       mm     mm     mm     mm       mm       mm      m        mm       mm     %        mm       mm    %        mm      mm       %  degC-day     m       %      %      %      %      %      %       %       %       -        mm       mm       mm    %     g/m2    ton/ha      %    ton/ha   ton/ha       %       kg/m3   ton/ha   ton/ha      mm       mm       m       mm        mm        mm        mm        mm        mm         mm    ton/ha    ton/ha    ton/ha    ton/ha    ton/ha     m      dS/m    dS/m      %     m      dS/m       0.05       0.18       0.33       0.48       0.63       0.80       1.00       1.20       1.43       1.68       1.93       2.18       0.05       0.18       0.33       0.48       0.63       0.80       1.00       1.20       1.43       1.68       1.93       2.18       mm        mm     degC      degC      degC       ppm
     1     7  2024     1     1     269.4     0.9      0.0    0.0    0.9    0.0      0.0      0.0   -9.90      0.2      0.2    100      0.0      0.0   100      0.2     0.2     100     20.2    0.30     -9     -9     -9      0     -9     0.0     0.0      0    -9.00      0.0      0.0      0.0   100     0.0     0.000    -9.9    0.000    0.000      -9        0.00    0.000    0.000     269.4    269.4    0.30    35.4     125.1      34.6      30.7      12.4      15.5       6.9    0.000     0.000     0.000     0.000     0.000    0.30     0.00    0.00      0   -9.90   -9.00       12.5       11.7       11.7       11.7       11.7       11.7       11.7       11.7       11.7       11.7       11.7       11.7        0.0        0.0        0.0        0.0        0.0        0.0        0.0        0.0        0.0        0.0        0.0        0.0      0.9       0.2      27.0      28.2      29.4    422.57
     2     7  2024     2     1     273.5     4.5      0.0    0.0    4.5    0.0      0.2      0.0   -9.90      0.2      0.2    100      0.0      0.0   100      0.2     0.2     100     18.8    0.30     -9     -9     -9      0     -9     0.0     0.0      0    -9.00      0.0      0.0      0.0   100     0.0     0.000    -9.9    0.000    0.000      -9        0.00    0.000    0.000     273.5    273.5    0.30    39.2     125.1      34.6      30.7      12.4      15.5       6.9    0.000     0.000     0.000     0.000     0.000    0.30     0.00    0.00      0   -9.90   -9.00       16.2       11.8       11.8       11.7       11.7       11.7       11.7       11.7       11.7       11.7       11.7       11.7        0.0        0.0        0.0        0.0        0.0        0.0        0.0        0.0        0.0        0.0        0.0        0.0      4.5       0.1      25.8      26.8      27.8    422.57
     3     7  2024     3     1     320.7    78.3      0.0    0.0   49.1   29.2      1.7      0.0   -9.90      0.2      0.2    100      0.0      0.0   100      0.2     0.2     100     19.4    0.30     -9     -9     -9      0     -9     0.0     0.0      0    -9.00      0.0      0.0      0.0   100     0.0     0.000    -9.9    0.000    0.000      -9        0.00    0.000    0.000     320.7    320.7    0.30    84.8     125.1      34.6      30.7      12.4      15.5       6.9    0.000     0.000     0.000     0.000     0.000    0.30     0.00    0.00      0   -9.90   -9.00       42.1       25.4       12.1       11.9       11.9       11.8       11.8       11.8       11.7       11.7       11.7       11.7        0.0        0.0        0.0        0.0        0.0        0.0        0.0        0.0        0.0        0.0        0.0        0.0     78.3       0.2      26.0      27.4      28.8    422.57
     4     7  2024     4     1     295.3     2.3      0.0    0.0    2.3    0.0     27.5      0.0   -9.90      0.2      0.2    100      0.0      0.0   100      0.2     0.2     100     20.0    0.30     -9     -9     -9      0     -9     0.0     0.0      0    -9.00      0.0      0.0      0.0   100     0.0     0.000    -9.9    0.000    0.000      -9        0.00    0.000    0.000     295.3    295.3    0.30    38.5     125.1      34.6      30.7      12.4      15.5       6.9    0.000     0.000     0.000     0.000     0.000    0.30     0.00    0.00      0   -9.90   -9.00       13.9       11.7       15.1       14.3       13.6       13.2       12.8       12.6       12.4       12.3       12.2       12.1        0.0        0.0        0.0        0.0        0.0        0.0        0.0        0.0        0.0        0.0        0.0        0.0      2.3       0.2      26.9      28.0      29.2    422.57
     5     7  2024     5     1     278.5     1.2      0.0    0.0    1.2    0.0     17.9      0.0   -9.90      0.2      0.2    100      0.0      0.0   100      0.2     0.2     100     19.6    0.32     -9     -9     -9      0     -9     0.0     0.0      0    -9.00      0.0      0.0      0.0   100     0.0     0.000    -9.9    0.000    0.000      -9        0.00    0.000    0.000     278.5    278.5    0.32    39.0     133.5      36.9      32.8      13.2      16.5       7.4    0.000     0.000     0.000     0.000     0.000    0.32     0.00    0.00      0   -9.90   -9.00       13.0       11.9       12.5       12.3       12.2       12.2       12.1       12.1       12.1       12.0       12.0       12.0        0.0        0.0        0.0        0.0        0.0        0.0        0.0        0.0        0.0        0.0        0.0        0.0      1.2       0.1      26.7      27.6      28.5    422.57
     6     7  2024     6     1     272.8     1.5      0.0    0.0    1.5    0.0      6.9      0.0   -9.90      0.2      0.2    100      0.0      0.0   100      0.2     0.2     100     19.8    0.36     -9     -9     -9      0     -9     0.0     0.0      0    -9.00      0.0      0.0      0.0   100     0.0     0.000    -9.9    0.000    0.000      -9        0.00    0.000    0.000     272.8    272.8    0.36    43.5     150.6      41.6      37.0      15.0      18.7       8.4    0.000     0.000     0.000     0.000     0.000    0.36     0.00    0.00      0   -9.90   -9.00       13.2       11.8       11.9       11.9       11.9       11.8       11.8       11.8       11.8       11.8       11.8       11.8        0.0        0.0        0.0        0.0        0.0        0.0        0.0        0.0        0.0        0.0        0.0        0.0      1.5       0.2      26.3      27.8      29.3    422.57
     7     7  2024     7     2     281.6    11.8      0.0    0.0   11.5    0.4      2.6      0.0   -9.90      0.2      0.2    100      0.0      0.0   100      0.2     0.2     100     18.6    0.40     -9      0      0      0      0     0.4     0.4      0     0.01      0.0      0.0      0.0   100    35.0     0.003    -9.9    0.000    0.000     100        0.00    0.000    0.000     281.6    281.6    0.40    57.9     166.4      46.0      34.2      16.6      16.6       9.3    0.000     0.000     0.000     0.000     0.000    0.40     0.00    0.00      0   -9.90   -9.00       23.4       11.8       11.9       11.8       11.8       11.8       11.8       11.8       11.7       11.7       11.7       11.7        0.0        0.0        0.0        0.0        0.0        0.0        0.0        0.0        0.0        0.0        0.0        0.0     11.8       0.2      25.4      26.6      27.9    422.57
     8     7  2024     8     2     295.5    21.3      0.0    0.0   19.3    2.0      5.2      0.0   -9.90      0.1      0.1    100      0.0      0.0   100      0.1     0.1     100     17.8    0.43     -9      0      0      0      0     0.5     0.5      0     0.01      0.0      0.0      0.0   100    35.0     0.006    -9.9    0.000    0.000     100        0.00    0.000    0.000     295.5    295.5    0.43    73.3     181.2      50.1      37.1      18.0      18.0      10.2    0.000     0.000     0.000     0.000     0.000    0.43     0.00    0.00      0   -9.90   -9.00       32.3       12.5       12.8       12.3       12.1       12.0       11.9       11.9       11.8       11.8       11.8       11.8        0.0        0.0        0.0        0.0        0.0        0.0        0.0        0.0        0.0        0.0        0.0        0.0     21.3       0.1      25.2      25.8      26.3    422.57
     9     7  2024     9     2     329.8    72.6      0.0    0.0   47.0   25.6     12.6      0.0   -9.90      0.2      0.2    100      0.0      0.0   100      0.2     0.2     100     19.3    0.47      0      0      0      0      0     0.6     0.6      0     0.01      0.0      0.0      0.0   100    35.0     0.010    -9.9    0.000    0.000     100        0.00    0.000    0.000     329.8    329.8    0.47   107.2     195.4      54.0      40.2      19.6      19.6      11.0    0.000     0.000     0.000     0.000     0.000    0.47     0.00    0.00      0   -9.90   -9.00       42.1       25.0       13.6       12.9       12.6       12.4       12.2       12.1       12.0       12.0       11.9       11.9        0.0        0.0        0.0        0.0        0.0        0.0        0.0        0.0        0.0        0.0        0.0        0.0     72.6       0.2      25.9      27.3      28.8    422.57
    10     7  2024    10     2     295.9     0.8      0.0    0.0    0.8    0.0     34.5      0.0   -9.90      0.2      0.2    100      0.0      0.0   100      0.2     0.2     100     19.5    0.50      0      0      0      0      0     0.7     0.7      0     0.01      0.0      0.0      0.0   100    35.0     0.014    -9.9    0.000    0.000     100        0.00    0.000    0.000     295.9    295.9    0.50    66.0     209.1      57.8      43.0      21.0      21.0      11.9    0.000     0.000     0.000     0.000     0.000    0.50     0.00    0.00      0   -9.90   -9.00       12.3       11.7       15.0       14.3       13.7       13.3       13.0       12.7       12.6       12.4       12.3       12.2        0.0        0.0        0.0        0.0        0.0        0.0        0.0        0.0        0.0        0.0        0.0        0.0      0.8       0.2      26.0      27.5      29.1    422.57
    11     7  2024    11     2     285.8     9.1      0.0    0.0    8.9    0.1     18.8      0.0   -9.90      0.2      0.2    100      0.0      0.0   100      0.2     0.2     100     19.0    0.53      0      0      0      0      0     0.8     0.8      0     0.01      0.0      0.0      0.0   100    35.0     0.019    -9.9    0.000    0.000     100        0.00    0.000    0.000     285.8    285.8    0.53    72.2     222.3      61.4      45.7      22.3      22.3      12.6    0.000     0.000     0.000     0.000     0.000    0.53     0.00    0.00      0   -9.90   -9.00       20.7       11.8       12.5       12.3       12.2       12.1       12.1       12.1       12.1       12.0       12.0       12.0        0.0        0.0        0.0        0.0        0.0        0.0        0.0        0.0        0.0        0.0        0.0        0.0      9.1       0.2      25.5      27.0      28.4    422.57
    12     7  2024    12     2     279.3     3.5      0.0    0.0    3.5    0.0      9.8      0.0   -9.90      0.2      0.2    100      0.0      0.0   100      0.2     0.2     100     19.4    0.56      0      0      0      0      0     1.0     1.0      0     0.02      0.0      0.0      0.0   100    35.0     0.026    -9.9    0.000    0.000     100        0.00    0.000    0.000     279.3    279.3    0.56    71.8     235.2      65.0      48.3      23.6      23.6      13.4    0.000     0.000     0.000     0.000     0.000    0.56     0.00    0.00      0   -9.90   -9.00       15.6       12.4       12.5       12.2       12.1       12.0       12.0       11.9       11.9       11.9       11.9       11.8        0.0        0.0        0.0        0.0        0.0        0.0        0.0        0.0        0.0        0.0        0.0        0.0      3.5       0.2      26.3      27.4      28.5    422.57
    13     7  2024    13     2     279.4     6.2      0.0    0.0    6.2    0.0      6.0      0.0   -9.90      0.2      0.2    100      0.0      0.0   100      0.2     0.2     100     18.9    0.59      0      0      0      0      0     1.2     1.2      0     0.02      0.0      0.0      0.0   100    35.0     0.033    -9.9    0.000    0.000     100        0.00    0.000    0.000     279.4    279.4    0.59    76.8     247.7      68.4      50.9      24.9      24.9      14.1    0.000     0.000     0.000     0.000     0.000    0.59     0.00    0.00      0   -9.90   -9.00       18.3       12.1       12.1       12.0       12.0       11.9       11.9       11.8       11.8       11.8       11.8       11.8        0.0        0.0        0.0        0.0        0.0        0.0        0.0        0.0        0.0        0.0        0.0        0.0      6.2       0.1      25.9      26.9      27.9    422.57
    14     7  2024    14     2     291.3    18.8      0.0    0.0   17.3    1.5      5.1      0.0   -9.90      0.2      0.2    100      0.0      0.0   100      0.2     0.2     100     18.8    0.62      0      0      0      0      0     1.4     1.4      0     0.02      0.0      0.0      0.0   100    35.0     0.041    -9.9    0.000    0.000     100        0.00    0.000    0.000     291.3    291.3    0.62    92.2     259.9      71.8      53.5      26.2      26.2      14.8    0.000     0.000     0.000     0.000     0.000    0.62     0.00    0.00      0   -9.90   -9.00       29.9       12.2       12.4       12.1       12.0       11.9       11.9       11.8       11.8       11.8       11.8       11.8        0.0        0.0        0.0        0.0        0.0        0.0        0.0        0.0        0.0        0.0        0.0        0.0     18.8       0.2      25.0      26.8      28.6    422.57
    15     7  2024    15     2     288.6     7.9      0.0    0.0    7.8    0.1     10.4      0.0   -9.90      0.2      0.2    100      0.0      0.0   100      0.2     0.2     100     19.2    0.65      0      0      0      0      0     1.6     1.6      0     0.03      0.0      0.0      0.0   100    35.0     0.051    -9.9    0.000    0.000     100        0.00    0.000    0.000     288.6    288.6    0.65    90.1     271.9      75.1      55.9      27.3      27.3      15.6    0.000     0.000     0.000     0.000     0.000    0.65     0.00    0.00      0   -9.90   -9.00       20.5       12.8       13.4       12.7       12.4       12.2       12.1       12.0       12.0       11.9       11.9       11.9        0.0        0.0        0.0        0.0        0.0        0.0        0.0        0.0        0.0        0.0        0.0        0.0      7.9       0.1      26.0      27.2      28.3    422.57
    16     7  2024    16     2     285.2     7.3      0.0    0.0    7.3    0.0     10.6      0.0   -9.90      0.1      0.1    100      0.0      0.0   100      0.1     0.1     100     18.9    0.67      0      0      0      0      0     1.9     1.9      0     0.03      0.0      0.0      0.0   100    35.0     0.063    -9.9    0.000    0.000     100        0.00    0.000    0.000     285.2    285.2    0.67    90.6     283.6      78.3      58.2      28.5      28.5      16.2    0.000     0.000     0.000     0.000     0.000    0.67     0.00    0.00      0   -9.90   -9.00       19.9       12.4       12.6       12.4       12.2       12.1       12.0       12.0       11.9       11.9       11.9       11.9        0.0        0.0        0.0        0.0        0.0        0.0        0.0        0.0        0.0        0.0        0.0        0.0      7.3       0.1      26.4      26.9      27.4    422.57
    17     7  2024    17     2     318.4    60.7      0.0    0.0   42.1   18.6      8.7      0.0   -9.90      0.1      0.1    100      0.0      0.0   100      0.2     0.2     100     18.7    0.70      0      0      0      0      0     2.3     2.3      0     0.04      0.0      0.0      0.0   100    35.0     0.077    -9.9    0.000    0.000     100        0.00    0.000    0.000     318.4    318.4    0.70   128.1     295.2      81.5      60.7      29.7      29.7      16.9    0.000     0.000     0.000     0.000     0.000    0.70     0.00    0.00      0   -9.90   -9.00       42.1       21.1       12.5       12.3       12.1       12.0       12.0       11.9       11.9       11.9       11.8       11.8        0.0        0.0        0.0        0.0        0.0        0.0        0.0        0.0        0.0        0.0        0.0        0.0     60.7       0.1      25.8      26.7      27.6    422.57
    18     7  2024    18     2     339.2    74.5      0.0    0.0   47.7   26.8     26.7      0.0   -9.90      0.1      0.1    100      0.0      0.0   100      0.1     0.1     100     18.2    0.73      0      0      0      0      0     2.7     2.7      0     0.05      0.0      0.0      0.0   100    35.0     0.094    -9.9    0.000    0.000     100        0.00    0.000    0.000     339.2    339.2    0.73   143.8     306.5      84.6      62.9      30.8      30.8      17.6    0.000     0.000     0.000     0.000     0.000    0.73     0.00    0.00      0   -9.90   -9.00       42.2       23.8       14.9       14.1       13.5       13.1       12.7       12.5       12.4       12.3       12.2       12.1        0.0        0.0        0.0        0.0        0.0        0.0        0.0        0.0        0.0        0.0        0.0        0.0     74.5       0.1      25.5      26.2      27.0    422.57
    19     7  2024    19     2     333.4    48.8      0.0    0.0   36.5   12.4     42.1      0.0   -9.90      0.2      0.2    100      0.0      0.0   100      0.2     0.2     100     19.0    0.75      0      0      0      0      0     3.2     3.2      0     0.06      0.0      0.0      0.0   100    35.0     0.113    -9.9    0.000    0.000     100        0.00    0.000    0.000     333.4    333.4    0.75   137.1     317.7      87.7      65.4      32.0      32.0      18.3    0.000     0.000     0.000     0.000     0.000    0.75     0.00    0.00      0   -9.90   -9.00       42.1       16.1       15.0       14.3       13.8       13.4       13.1       12.9       12.7       12.5       12.4       12.3        0.0        0.0        0.0        0.0        0.0        0.0        0.0        0.0        0.0        0.0        0.0        0.0     48.8       0.2      25.6      27.0      28.3    422.57
    20     7  2024    20     2     299.0     5.1      0.0    0.0    5.1    0.0     39.2      0.0   -9.90      0.2      0.2    100      0.0      0.0   100      0.2     0.2     100     20.3    0.78      0      0      0      0      0     3.7     3.7      0     0.06      0.0      0.0      0.0   100    35.0     0.136    -9.9    0.000    0.000     100        0.00    0.000    0.000     299.0    299.0    0.78   108.2     328.7      90.8      67.6      33.1      33.1      18.9    0.000     0.000     0.000     0.000     0.000    0.78     0.00    0.00      0   -9.90   -9.00       16.7       12.5       14.6       13.9       13.4       13.1       12.9       12.7       12.6       12.4       12.3       12.3        0.0        0.0        0.0        0.0        0.0        0.0        0.0        0.0        0.0        0.0        0.0        0.0      5.1       0.2      27.0      28.3      29.6    422.57
    21     7  2024    21     2     279.6     1.3      0.0    0.0    1.3    0.0     20.6      0.0   -9.90      0.2      0.2    100      0.0      0.0   100      0.2     0.2     100     20.4    0.81      0      0      0      0      0     4.4     4.4      0     0.08      0.0      0.0      0.0   100    35.0     0.163    -9.9    0.000    0.000     100        0.00    0.000    0.000     279.6    279.6    0.81    99.1     339.6      93.8      69.9      34.3      34.3      19.5    0.000     0.000     0.000     0.000     0.000    0.81     0.00    0.00      0   -9.90   -9.00       13.0       12.2       12.4       12.3       12.3       12.2       12.2       12.1       12.1       12.0       12.0       12.0        0.0        0.0        0.0        0.0        0.0        0.0        0.0        0.0        0.0        0.0        0.0        0.0      1.3       0.2      27.1      28.4      29.7    422.57
    22     7  2024    22     2     273.2     1.5      0.0    0.0    1.5    0.0      7.6      0.0   -9.90      0.2      0.2    100      0.0      0.0   100      0.2     0.2     100     19.7    0.83      0      0      0      0      0     5.2     5.2      0     0.09      0.0      0.0      0.0   100    35.0     0.194    -9.9    0.000    0.000     100        0.00    0.000    0.000     273.2    273.2    0.83    99.5     350.3      96.7      72.0      35.3      35.3      20.2    0.000     0.000     0.000     0.000     0.000    0.83     0.00    0.00      0   -9.90   -9.00       13.2       11.9       11.9       11.9       11.9       11.9       11.8       11.8       11.8       11.8       11.8       11.8        0.0        0.0        0.0        0.0        0.0        0.0        0.0        0.0        0.0        0.0        0.0        0.0      1.5       0.1      26.6      27.7      28.8    422.57
    23     7  2024    23     2     273.7     3.4      0.0    0.0    3.4    0.0      2.9      0.0   -9.90      0.1      0.1    100      0.0      0.0   100      0.1     0.1     100     19.0    0.86      0      0      0      0      0     6.1     6.1      0     0.10      0.0      0.0      0.0   100    35.0     0.231    -9.9    0.000    0.000     100        0.00    0.000    0.000     273.7    273.7    0.86   104.0     360.9      99.7      74.1      36.3      36.3      20.8    0.000     0.000     0.000     0.000     0.000    0.86     0.00    0.00      0   -9.90   -9.00       15.3       11.8       11.9       11.8       11.8       11.8       11.8       11.8       11.8       11.7       11.7       11.7        0.0        0.0        0.0        0.0        0.0        0.0        0.0        0.0        0.0        0.0        0.0        0.0      3.4       0.1      26.3      27.0      27.7    422.57
    24     7  2024    24     2     281.0     9.8      0.0    0.0    9.7    0.2      2.3      0.0   -9.90      0.1      0.1    100      0.0      0.0   100      0.1     0.1     100     18.4    0.88      0      0      0      0      0     7.2     7.2      0     0.12      0.0      0.0      0.0   100    35.0     0.274    -9.9    0.000    0.000     100        0.00    0.000    0.000     281.0    281.0    0.88   114.2     371.4     102.5      76.3      37.4      37.4      21.4    0.000     0.000     0.000     0.000     0.000    0.88     0.00    0.00      0   -9.90   -9.00       21.9       12.0       12.0       11.9       11.8       11.8       11.8       11.8       11.8       11.7       11.7       11.7        0.0        0.0        0.0        0.0        0.0        0.0        0.0        0.0        0.0        0.0        0.0        0.0      9.8       0.1      25.7      26.4      27.1    422.57
    25     7  2024    25     2     311.3    47.3      0.0    0.0   35.7   11.6      5.2      0.0   -9.90      0.1      0.1    100      0.0      0.0   100      0.1     0.1     100     18.2    0.91      0      0      0      0      0     8.5     8.5      0     0.14      0.0      0.0      0.0   100    35.0     0.324    -9.9    0.000    0.000     100        0.00    0.000    0.000     311.3    311.3    0.91   146.3     381.7     105.4      78.3      38.4      38.4      22.0    0.000     0.000     0.000     0.000     0.000    0.91     0.00    0.00      0   -9.90   -9.00       42.2       16.8       12.7       12.3       12.1       12.0       11.9       11.9       11.8       11.8       11.8       11.8        0.0        0.0        0.0        0.0        0.0        0.0        0.0        0.0        0.0        0.0        0.0        0.0     47.3       0.1      25.8      26.2      26.7    422.57
    26     7  2024    26     2     318.6    36.1      0.0    0.0   29.4    6.7     21.9      0.0   -9.90      0.1      0.1    100      0.0      0.0   100      0.2     0.2     100     18.7    0.93      0      0      0      0      0    10.0    10.0      0     0.17      0.0      0.0      0.0   100    35.0     0.383    -9.9    0.000    0.000     100        0.00    0.000    0.000     318.6    318.6    0.93   150.9     392.0     108.2      80.6      39.5      39.5      22.6    0.000     0.000     0.000     0.000     0.000    0.93     0.00    0.00      0   -9.90   -9.00       41.4       12.4       14.7       13.8       13.2       12.9       12.6       12.4       12.3       12.2       12.1       12.0        0.0        0.0        0.0        0.0        0.0        0.0        0.0        0.0        0.0        0.0        0.0        0.0     36.1       0.1      25.8      26.7      27.6    422.57
    27     7  2024    27     2     305.0    15.9      0.0    0.0   15.0    0.9     28.4      0.0   -9.90      0.2      0.2    100      0.0      0.0   100      0.2     0.2     100     20.1    0.95      0      0      0      0      0    11.8    11.8      0     0.20      0.0      0.0      0.0   100    35.0     0.452    -9.9    0.000    0.000     100        0.00    0.000    0.000     305.0    305.0    0.95   139.2     402.2     111.0      82.8      40.7      40.7      23.2    0.000     0.000     0.000     0.000     0.000    0.95     0.00    0.00      0   -9.90   -9.00       26.9       12.8       14.3       13.6       13.1       12.9       12.6       12.5       12.4       12.3       12.2       12.1        0.0        0.0        0.0        0.0        0.0        0.0        0.0        0.0        0.0        0.0        0.0        0.0     15.9       0.2      26.5      28.1      29.8    422.57
    28     7  2024    28     2     286.9     3.8      0.0    0.0    3.8    0.0     21.7      0.0   -9.90      0.2      0.2    100      0.0      0.0   100      0.2     0.2     100     20.0    0.98      0      0      0      0      0    14.0    14.0      0     0.23      0.0      0.0      0.0   100    35.0     0.532    -9.9    0.000    0.000     100        0.00    0.000    0.000     286.9    286.9    0.98   126.6     412.2     113.8      84.9      41.7      41.7      23.8    0.000     0.000     0.000     0.000     0.000    0.98     0.00    0.00      0   -9.90   -9.00       15.9       12.7       13.2       12.8       12.6       12.4       12.3       12.2       12.2       12.1       12.0       12.0        0.0        0.0        0.0        0.0        0.0        0.0        0.0        0.0        0.0        0.0        0.0        0.0      3.8       0.2      26.4      28.0      29.6    422.57
    29     7  2024    29     2     275.7     0.6      0.0    0.0    0.6    0.0     11.7      0.0   -9.90      0.1      0.1    100      0.0      0.0   100      0.1     0.1     100     19.9    1.00      0      0      0      0      0    16.5    16.5      0     0.27      0.0      0.0      0.0   100    35.0     0.626    -9.9    0.000    0.000     100        0.00    0.000    0.000     275.7    275.7    1.00   120.8     422.2     116.6      86.8      42.6      42.6      24.4    0.000     0.000     0.000     0.000     0.000    1.00     0.00    0.00      0   -9.90   -9.00       12.3       12.2       12.2       12.1       12.1       12.0       12.0       12.0       11.9       11.9       11.9       11.9        0.0        0.0        0.0        0.0        0.0        0.0        0.0        0.0        0.0        0.0        0.0        0.0      0.6       0.1      27.1      27.9      28.7    422.57
    30     7  2024    30     2     273.7     3.1      0.0    0.0    3.1    0.0      4.9      0.0   -9.90      0.1      0.1    100      0.0      0.0   100      0.2     0.2     100     19.7    1.02      0      0      0      0      0    19.4    19.4      0     0.31      0.0      0.0      0.0   100    35.0     0.734    -9.9    0.000    0.000     100        0.00    0.000    0.000     273.7    273.7    1.02   123.3     432.0     119.3      88.9      43.7      43.7      25.0    0.000     0.000     0.000     0.000     0.000    1.02     0.00    0.00      0   -9.90   -9.00       14.7       11.8       11.8       11.8       11.8       11.8       11.8       11.8       11.8       11.8       11.8       11.8        0.0        0.0        0.0        0.0        0.0        0.0        0.0        0.0        0.0        0.0        0.0        0.0      3.1       0.2      26.5      27.7      28.9    422.57
    31     7  2024    31     2     273.3     2.4      0.0    0.0    2.4    0.0      2.6      0.0   -9.90      0.1      0.1    100      0.1      0.1   100      0.2     0.2     100     19.1    1.05      0      0      0      0      0    22.9    22.9      0     0.36      0.1      0.1      0.1   100    35.0     0.859    -9.9    0.000    0.000     100        0.00    0.000    0.000     273.3    273.3    1.05   126.1     441.8     122.0      90.9      44.6      44.6      25.6    0.000     0.000     0.000     0.000     0.000    1.05     0.00    0.00      0   -9.90   -9.00       14.4       12.0       12.0       11.9       11.8       11.8       11.8       11.8       11.8       11.7       11.7       11.7        0.0        0.0        0.0        0.0        0.0        0.0        0.0        0.0        0.0        0.0        0.0        0.0      2.4       0.1      26.1      27.1      28.1    422.57
     1     8  2024    32     2     282.7    12.1      0.0    0.0   11.7    0.4      2.2      0.0   -9.90      0.1      0.1    100      0.1      0.1   100      0.2     0.2     100     20.0    1.07      0      0      0      0      0    27.0    27.0      0     0.41      0.1      0.1      0.1   100    35.0     1.003    -9.9    0.000    0.000     100        0.00    0.000    0.000     282.7    282.7    1.07   138.2     451.5     124.7      92.9      45.6      45.6      26.1    0.000     0.000     0.000     0.000     0.000    1.07     0.00    0.00      0   -9.90   -9.00       23.8       11.9       12.0       11.9       11.8       11.8       11.8       11.8       11.8       11.7       11.7       11.7        0.0        0.0        0.0        0.0        0.0        0.0        0.0        0.0        0.0        0.0        0.0        0.0     12.1       0.1      27.0      28.0      29.0    422.57
     2     8  2024    33     2     277.5     0.9      0.0    0.0    0.9    0.0      5.9      0.0   -9.90      0.1      0.1    100      0.1      0.1   100      0.2     0.2     100     19.6    1.09      0      0      0      0      0    31.8    31.8      0     0.47      0.1      0.1      0.1   100    35.0     1.168    -9.9    0.000    0.000     100        0.00    0.000    0.000     277.5    277.5    1.09   134.5     461.2     127.3      94.9      46.6      46.6      26.7    0.000     0.000     0.000     0.000     0.000    1.09     0.00    0.00      0   -9.90   -9.00       12.6       12.6       12.8       12.5       12.3       12.0       12.0       11.9       11.9       11.8       11.8       11.8        0.0        0.0        0.0        0.0        0.0        0.0        0.0        0.0        0.0        0.0        0.0        0.0      0.9       0.2      26.4      27.6      28.9    422.57
     3     8  2024    34     2     272.1     0.3      0.0    0.0    0.3    0.0      5.5      0.0   -9.90      0.1      0.1    100      0.1      0.1   100      0.2     0.2     100     19.6    1.12      0      0      0      0      0    37.5    37.5      0     0.54      0.1      0.1      0.1   100    35.0     1.357    -9.9    0.000    0.000     100        0.00    0.000    0.000     272.1    272.1    1.12   132.2     470.7     130.0      96.9      47.6      47.6      27.3    0.000     0.000     0.000     0.000     0.000    1.12     0.00    0.00      0   -9.90   -9.00       11.9       11.8       12.0       11.9       11.9       11.9       11.9       11.8       11.8       11.8       11.8       11.8        0.0        0.0        0.0        0.0        0.0        0.0        0.0        0.0        0.0        0.0        0.0        0.0      0.3       0.2      26.2      27.6      29.0    422.57
     4     8  2024    35     2     290.7    23.9      0.0    0.0   21.3    2.7      2.5      0.0   -9.90      0.1      0.1    100      0.1      0.1   100      0.1     0.1     100     18.2    1.14      0      0      0      0      0    44.3    44.3      0     0.61      0.1      0.1      0.1   100    35.0     1.571    -9.9    0.000    0.000     100        0.00    0.000    0.000     290.7    290.7    1.14   154.2     480.2     132.6      98.7      48.5      48.5      27.8    0.000     0.000     0.000     0.000     0.000    1.14     0.00    0.00      0   -9.90   -9.00       33.2       11.7       11.8       11.8       11.8       11.8       11.8       11.7       11.7       11.7       11.7       11.7        0.0        0.0        0.0        0.0        0.0        0.0        0.0        0.0        0.0        0.0        0.0        0.0     23.9       0.1      25.4      26.2      27.1    422.57
     5     8  2024    36     2     301.5    22.5      0.0    0.0   20.2    2.3      9.3      0.0   -9.90      0.1      0.1    100      0.1      0.1   100      0.1     0.1     100     18.2    1.16      0      0      0      0      0    51.8    51.8      0     0.69      0.1      0.1      0.1   100    35.0     1.812    -9.9    0.000    0.000     100        0.00    0.000    0.000     301.5    301.5    1.16   165.7     489.6     135.2     100.7      49.5      49.5      28.4    0.000     0.000     0.000     0.000     0.000    1.16     0.00    0.00      0   -9.90   -9.00       33.1       12.8       13.6       12.8       12.5       12.3       12.1       12.0       12.0       11.9       11.9       11.8        0.0        0.0        0.0        0.0        0.0        0.0        0.0        0.0        0.0        0.0        0.0        0.0     22.5       0.1      25.3      26.2      27.1    422.57
     6     8  2024    37     2     306.1    24.1      0.0    0.0   21.4    2.7     16.6      0.0   -9.90      0.1      0.1    100      0.1      0.1   100      0.2     0.2     100     18.9    1.18      0      0      0      0      0    58.4    58.4      0     0.75      0.1      0.1      0.1   100    35.0     2.075    -9.9    0.000    0.000     100        0.00    0.000    0.000     306.1    306.1    1.18   171.4     499.0     137.8     102.7      50.5      50.5      28.9    0.000     0.000     0.000     0.000     0.000    1.18     0.00    0.00      0   -9.90   -9.00       34.2       12.9       13.7       13.1       12.7       12.5       12.3       12.2       12.1       12.0       12.0       12.0        0.0        0.0        0.0        0.0        0.0        0.0        0.0        0.0        0.0        0.0        0.0        0.0     24.1       0.2      25.6      26.9      28.2    422.57
     7     8  2024    38     2     289.3     3.7      0.0    0.0    3.7    0.0     20.3      0.0   -9.90      0.0      0.0    100      0.1      0.1   100      0.1     0.1     100     18.7    1.20      0      0      0      0      0    64.0    64.0      0     0.80      0.1      0.1      0.1   100    35.0     2.354    -9.9    0.000    0.000     100        0.00    0.000    0.000     289.3    289.3    1.20   156.7     508.3     140.3     104.5      51.4      51.4      29.5    0.000     0.000     0.000     0.000     0.000    1.20     0.00    0.00      0   -9.90   -9.00       15.9       12.9       13.8       13.1       12.8       12.6       12.4       12.3       12.2       12.1       12.0       12.0        0.0        0.0        0.0        0.0        0.0        0.0        0.0        0.0        0.0        0.0        0.0        0.0      3.7       0.1      25.9      26.7      27.5    422.57
     8     8  2024    39     2     287.9    11.9      0.0    0.0   11.6    0.4     12.9      0.0   -9.90      0.0      0.0    100      0.1      0.1   100      0.1     0.1     100     18.7    1.23      0      0      0      0      0    68.8    68.8      0     0.84      0.1      0.1      0.1   100    35.0     2.647    -9.9    0.000    0.000     100        0.00    0.000    0.000     287.9    287.9    1.23   159.7     517.5     142.9     106.4      52.3      52.3      30.0    0.000     0.000     0.000     0.000     0.000    1.23     0.00    0.00      0   -9.90   -9.00       23.9       12.2       12.3       12.2       12.2       12.1       12.0       12.0       12.0       11.9       11.9       11.9        0.0        0.0        0.0        0.0        0.0        0.0        0.0        0.0        0.0        0.0        0.0        0.0     11.9       0.1      25.8      26.7      27.6    422.57
     9     8  2024    40     2     292.7    15.6      0.0    0.0   14.7    0.9      9.7      0.0   -9.90      0.0      0.0    100      0.2      0.2   100      0.2     0.2     100     19.3    1.25      0      0      0      0      0    72.8    72.8      0     0.87      0.2      0.2      0.2   100    35.0     2.950    -9.9    0.000    0.000     100        0.00    0.000    0.000     292.7    292.7    1.25   167.6     526.7     145.4     108.5      53.4      53.4      30.6    0.000     0.000     0.000     0.000     0.000    1.25     0.00    0.00      0   -9.90   -9.00       27.6       12.6       12.9       12.4       12.2       12.1       12.0       12.0       11.9       11.9       11.9       11.8        0.0        0.0        0.0        0.0        0.0        0.0        0.0        0.0        0.0        0.0        0.0        0.0     15.6       0.2      25.7      27.3      28.9    422.57
    10     8  2024    41     2     285.3     4.7      0.0    0.0    4.7    0.0     12.0      0.0   -9.90      0.0      0.0    100      0.1      0.1   100      0.1     0.1     100     18.4    1.27      0      0      0      0      0    76.2    76.2      0     0.89      0.1      0.1      0.1   100    35.0     3.263    -9.9    0.000    0.000     100        0.00    0.000    0.000     285.3    285.3    1.27   162.1     535.8     147.9     110.1      54.2      54.2      31.1    0.000     0.000     0.000     0.000     0.000    1.27     0.00    0.00      0   -9.90   -9.00       17.1       12.7       13.2       12.7       12.4       12.3       12.1       12.0       12.0       12.0       11.9       11.9        0.0        0.0        0.0        0.0        0.0        0.0        0.0        0.0        0.0        0.0        0.0        0.0      4.7       0.1      25.6      26.4      27.2    422.57
    11     8  2024    42     2     296.1    22.9      0.0    0.0   20.5    2.4      9.5      0.0   -9.90      0.0      0.0    100      0.2      0.2   100      0.2     0.2     100     18.8    1.29      0      0      0      0      0    79.1    79.1      0     0.91      0.2      0.2      0.2   100    35.0     3.584    -9.9    0.000    0.000     100        0.00    0.000    0.000     296.1    296.1    1.29   176.2     544.9     150.4     112.2      55.2      55.2      31.6    0.000     0.000     0.000     0.000     0.000    1.29     0.00    0.00      0   -9.90   -9.00       33.1       12.2       12.3       12.2       12.1       12.0       12.0       11.9       11.9       11.9       11.9       11.8        0.0        0.0        0.0        0.0        0.0        0.0        0.0        0.0        0.0        0.0        0.0        0.0     22.9       0.2      25.5      26.8      28.1    422.57
    12     8  2024    43     2     326.1    63.9      0.0    0.0   43.5   20.4     13.4      0.0   -9.90      0.0      0.0    100      0.2      0.2   100      0.2     0.2     100     19.5    1.31      0      0      0      0      0    81.6    81.6      0     0.93      0.2      0.2      0.2   100    35.0     3.910    -9.9    0.000    0.000     100        0.00    0.000    0.000     326.1    326.1    1.31   207.8     553.9     152.9     114.1      56.2      56.2      32.2    0.000     0.000     0.000     0.000     0.000    1.31     0.00    0.00      0   -9.90   -9.00       42.1       22.5       13.6       12.9       12.6       12.4       12.2       12.1       12.0       12.0       11.9       11.9        0.0        0.0        0.0        0.0        0.0        0.0        0.0        0.0        0.0        0.0        0.0        0.0     63.9       0.2      25.9      27.5      29.1    422.57
    13     8  2024    44     2     294.6     0.9      0.0    0.0    0.9    0.0     32.2      0.0   -9.90      0.0      0.0    100      0.2      0.2   100      0.2     0.2     100     20.1    1.33      0      0      0      0      0    83.7    83.7      0     0.95      0.2      0.2      0.2   100    35.0     4.242    -9.9    0.000    0.000     100        0.00    0.000    0.000     294.6    294.6    1.33   175.4     562.8     155.4     115.9      57.0      57.0      32.7    0.000     0.000     0.000     0.000     0.000    1.33     0.00    0.00      0   -9.90   -9.00       12.5       11.7       15.0       14.2       13.6       13.2       12.9       12.7       12.5       12.4       12.3       12.2        0.0        0.0        0.0        0.0        0.0        0.0        0.0        0.0        0.0        0.0        0.0        0.0      0.9       0.2      26.9      28.1      29.4    422.57
    14     8  2024    45     2     278.3     1.7      0.0    0.0    1.7    0.0     17.8      0.0   -9.90      0.0      0.0    100      0.2      0.2   100      0.2     0.2     100     20.0    1.35      0      0      0      0      0    85.4    85.4      0     0.96      0.2      0.2      0.2   100    35.0     4.578    -9.9    0.000    0.000     100        0.00    0.000    0.000     278.3    278.3    1.35   164.8     571.7     157.8     117.7      57.9      57.9      33.2    0.000     0.000     0.000     0.000     0.000    1.35     0.00    0.00      0   -9.90   -9.00       13.4       11.8       12.4       12.3       12.1       12.1       12.1       12.1       12.0       12.0       12.0       12.0        0.0        0.0        0.0        0.0        0.0        0.0        0.0        0.0        0.0        0.0        0.0        0.0      1.7       0.2      26.8      28.0      29.2    422.57
    15     8  2024    46     2     281.3    10.0      0.0    0.0    9.8    0.2      6.7      0.0   -9.90      0.0      0.0    100      0.1      0.1   100      0.2     0.2     100     18.6    1.37      0      0      0      0      0    86.9    86.9      0     0.97      0.1      0.1      0.1   100    35.0     4.917    -9.9    0.000    0.000     100        0.00    0.000    0.000     281.3    281.3    1.37   172.0     580.6     160.3     119.5      58.8      58.8      33.8    0.000     0.000     0.000     0.000     0.000    1.37     0.00    0.00      0   -9.90   -9.00       21.8       11.8       11.9       11.9       11.9       11.8       11.8       11.8       11.8       11.8       11.8       11.8        0.0        0.0        0.0        0.0        0.0        0.0        0.0        0.0        0.0        0.0        0.0        0.0     10.0       0.1      25.5      26.6      27.6    422.57
    16     8  2024    47     2     294.5    20.9      0.0    0.0   19.0    1.9      5.6      0.0   -9.90      0.0      0.0    100      0.1      0.1   100      0.1     0.1     100     18.9    1.40      0      0      0      0      0    88.2    88.2      0     0.98      0.1      0.1      0.1   100    35.0     5.260    -9.9    0.000    0.000     100        0.00    0.000    0.000     294.5    294.5    1.40   187.7     589.4     162.7     121.2      59.6      59.6      34.3    0.000     0.000     0.000     0.000     0.000    1.40     0.00    0.00      0   -9.90   -9.00       31.9       12.4       12.6       12.2       12.1       12.0       11.9       11.9       11.8       11.8       11.8       11.8        0.0        0.0        0.0        0.0        0.0        0.0        0.0        0.0        0.0        0.0        0.0        0.0     20.9       0.1      25.9      26.9      27.9    422.57
    17     8  2024    48     2     290.8     8.5      0.0    0.0    8.4    0.1     12.1      0.0   -9.90      0.0      0.0    100      0.1      0.1   100      0.1     0.1     100     18.7    1.42      0      0      0      0      0    89.3    89.3      0     0.98      0.1      0.1      0.1   100    35.0     5.605    -9.9    0.000    0.000     100        0.00    0.000    0.000     290.8    290.8    1.42   185.2     598.2     165.1     122.8      60.4      60.4      34.8    0.000     0.000     0.000     0.000     0.000    1.42     0.00    0.00      0   -9.90   -9.00       21.1       12.8       13.6       12.9       12.5       12.3       12.2       12.1       12.0       12.0       11.9       11.9        0.0        0.0        0.0        0.0        0.0        0.0        0.0        0.0        0.0        0.0        0.0        0.0      8.5       0.1      26.3      26.7      27.2    422.57
    18     8  2024    49     2     297.2    20.3      0.0    0.0   18.5    1.8     11.9      0.0   -9.90      0.0      0.0    100      0.1      0.1   100      0.1     0.1     100     19.1    1.44      0      0      0      0      0    90.2    90.2      0     0.99      0.1      0.1      0.1   100    35.0     5.952    -9.9    0.000    0.000     100        0.00    0.000    0.000     297.2    297.2    1.44   194.3     606.9     167.5     124.8      61.4      61.4      35.3    0.000     0.000     0.000     0.000     0.000    1.44     0.00    0.00      0   -9.90   -9.00       31.4       12.5       12.7       12.4       12.3       12.2       12.1       12.0       12.0       11.9       11.9       11.9        0.0        0.0        0.0        0.0        0.0        0.0        0.0        0.0        0.0        0.0        0.0        0.0     20.3       0.1      26.2      27.1      27.9    422.57
    19     8  2024    50     2     287.6     5.1      0.0    0.0    5.1    0.0     14.6      0.0   -9.90      0.0      0.0    100      0.1      0.1   100      0.1     0.1     100     18.7    1.46      0      0      0      0      0    90.9    90.9      0     1.00      0.1      0.1      0.1   100    35.0     6.301    -9.9    0.000    0.000     100        0.00    0.000    0.000     287.6    287.6    1.46   186.7     615.5     169.9     126.6      62.3      62.3      35.8    0.000     0.000     0.000     0.000     0.000    1.46     0.00    0.00      0   -9.90   -9.00       17.5       12.8       13.5       12.9       12.5       12.4       12.2       12.1       12.0       12.0       11.9       11.9        0.0        0.0        0.0        0.0        0.0        0.0        0.0        0.0        0.0        0.0        0.0        0.0      5.1       0.1      25.8      26.7      27.5    422.57
    20     8  2024    51     2     289.9    14.0      0.0    0.0   13.4    0.6     10.9      0.0   -9.90      0.0      0.0    100      0.1      0.1   100      0.1     0.1     100     18.3    1.48      0      0      0      0      0    91.6    91.6      0     1.00      0.1      0.1      0.1   100    35.0     6.652    -9.9    0.000    0.000     100        0.00    0.000    0.000     289.9    289.9    1.48   192.1     624.2     172.3     128.3      63.1      63.1      36.3    0.000     0.000     0.000     0.000     0.000    1.48     0.00    0.00      0   -9.90   -9.00       25.9       12.3       12.4       12.3       12.2       12.1       12.0       12.0       11.9       11.9       11.9       11.9        0.0        0.0        0.0        0.0        0.0        0.0        0.0        0.0        0.0        0.0        0.0        0.0     14.0       0.1      25.6      26.3      27.0    422.57
    21     8  2024    52     2     294.1    15.6      0.0    0.0   14.7    0.9     10.4      0.0   -9.90      0.0      0.0    100      0.2      0.2   100      0.2     0.2     100     18.2    1.50      0      0      0      0      0    92.1    92.1      0     1.00      0.2      0.2      0.2   100    35.0     7.003    -9.9    0.000    0.000     100        0.00    0.000    0.000     294.1    294.1    1.50   198.7     632.8     174.7     130.2      64.1      64.1      36.8    0.000     0.000     0.000     0.000     0.000    1.50     0.00    0.00      0   -9.90   -9.00       27.7       12.7       13.0       12.5       12.3       12.2       12.1       12.0       11.9       11.9       11.9       11.9        0.0        0.0        0.0        0.0        0.0        0.0        0.0        0.0        0.0        0.0        0.0        0.0     15.6       0.1      25.2      26.2      27.3    422.57
    22     8  2024    53     2     302.0    23.5      0.0    0.0   20.9    2.6     12.8      0.0   -9.90      0.0      0.0    100      0.2      0.2   100      0.2     0.2     100     18.8    1.52      0      0      0      0      0    92.6    92.6      0     1.01      0.2      0.2      0.2   100    35.0     7.356    -9.9    0.000    0.000     100        0.00    0.000    0.000     302.0    302.0    1.52   208.7     641.3     177.0     132.0      65.0      65.0      37.3    0.000     0.000     0.000     0.000     0.000    1.52     0.00    0.00      0   -9.90   -9.00       33.8       12.8       13.2       12.7       12.4       12.3       12.1       12.1       12.0       12.0       11.9       11.9        0.0        0.0        0.0        0.0        0.0        0.0        0.0        0.0        0.0        0.0        0.0        0.0     23.5       0.2      25.5      26.8      28.1    422.57
    23     8  2024    54     2     295.4    10.9      0.0    0.0   10.7    0.3     17.0      0.0   -9.90      0.0      0.0    100      0.2      0.2   100      0.2     0.2     100     20.1    1.54      0      0      0      0      0    93.0    93.0      0     1.01      0.2      0.2      0.2   100    35.0     7.710    -9.9    0.000    0.000     100        0.00    0.000    0.000     295.4    295.4    1.54   203.9     649.8     179.4     133.9      66.0      66.0      37.8    0.000     0.000     0.000     0.000     0.000    1.54     0.00    0.00      0   -9.90   -9.00       23.3       12.9       13.7       13.1       12.7       12.5       12.3       12.2       12.1       12.0       12.0       12.0        0.0        0.0        0.0        0.0        0.0        0.0        0.0        0.0        0.0        0.0        0.0        0.0     10.9       0.2      26.5      28.1      29.7    422.57
    24     8  2024    55     2     281.5     1.4      0.0    0.0    1.4    0.0     15.2      0.0   -9.90      0.0      0.0    100      0.2      0.2   100      0.2     0.2     100     19.4    1.56      0      0      0      0      0    93.3    93.3      0     1.01      0.2      0.2      0.2   100    35.0     8.064    -9.9    0.000    0.000     100        0.00    0.000    0.000     281.5    281.5    1.56   192.6     658.3     181.7     135.5      66.7      66.7      38.3    0.000     0.000     0.000     0.000     0.000    1.56     0.00    0.00      0   -9.90   -9.00       13.2       12.6       12.9       12.6       12.4       12.3       12.2       12.1       12.0       12.0       12.0       11.9        0.0        0.0        0.0        0.0        0.0        0.0        0.0        0.0        0.0        0.0        0.0        0.0      1.4       0.1      26.4      27.4      28.5    422.57
    25     8  2024    56     3     278.1     5.3      0.0    0.0    5.3    0.0      8.5      0.0   -9.90      0.0      0.0    100      0.2      0.2   100      0.2     0.2     100     19.6    1.58      0      0      0      0      0    93.5    93.5      0     1.01      0.2      0.2      0.2   100    35.0     8.420    -9.9    0.000    0.000     100        0.00    0.000    0.000     278.1    278.1    1.58   192.6     666.7     184.0     137.2      67.6      67.6      38.8    0.000     0.000     0.000     0.000     0.000    1.58     0.00    0.00      0   -9.90   -9.00       17.1       11.9       12.0       12.0       12.0       11.9       11.9       11.9       11.9       11.8       11.8       11.8        0.0        0.0        0.0        0.0        0.0        0.0        0.0        0.0        0.0        0.0        0.0        0.0      5.3       0.2      26.4      27.6      28.8    422.57
    26     8  2024    57     3     283.9    11.2      0.0    0.0   10.9    0.3      4.9      0.0   -9.90      0.0      0.0    100      0.2      0.2   100      0.2     0.2     100     19.0    1.60      0      0      0      0      0    93.7    93.7      0     1.01      0.2      0.2      0.2   100    35.0     8.775    -9.9    0.000    0.000     100        0.00    0.000    0.000     283.9    283.9    1.60   201.1     675.1     186.4     138.9      68.4      68.4      39.3    0.000     0.000     0.000     0.000     0.000    1.60     0.00    0.00      0   -9.90   -9.00       23.3       12.1       12.2       12.0       11.9       11.9       11.8       11.8       11.8       11.8       11.8       11.8        0.0        0.0        0.0        0.0        0.0        0.0        0.0        0.0        0.0        0.0        0.0        0.0     11.2       0.1      26.0      27.0      28.1    422.57
    27     8  2024    58     3     282.6     5.8      0.0    0.0    5.7    0.0      6.9      0.0   -9.90      0.0      0.0    100      0.2      0.2   100      0.2     0.2     100     20.0    1.62      0      0      0      0      0    93.9    93.9      0     1.02      0.2      0.2      0.2   100    35.0     9.131     1.5    0.137    0.153     100        1.45    0.000    0.000     282.6    282.6    1.62   201.7     683.5     188.7     140.8      69.3      69.3      39.8    0.000     0.000     0.000     0.000     0.000    1.62     0.00    0.00      0   -9.90   -9.00       18.1       12.5       12.8       12.4       12.2       12.0       12.0       11.9       11.9       11.9       11.8       11.8        0.0        0.0        0.0        0.0        0.0        0.0        0.0        0.0        0.0        0.0        0.0        0.0      5.8       0.2      26.6      28.0      29.4    422.57
    28     8  2024    59     3     275.7     0.7      0.0    0.0    0.7    0.0      7.4      0.0   -9.90      0.0      0.0    100      0.2      0.2   100      0.2     0.2     100     20.4    1.64      0      0      0      0      0    94.0    94.0      0     1.02      0.2      0.2      0.2   100    35.0     9.487     1.8    0.175    0.194     100        1.82    0.000    0.000     275.7    275.7    1.64   197.2     691.8     191.0     142.5      70.2      70.2      40.3    0.000     0.000     0.000     0.000     0.000    1.64     0.00    0.00      0   -9.90   -9.00       12.4       12.3       12.4       12.2       12.2       12.0       12.0       11.9       11.9       11.8       11.8       11.8        0.0        0.0        0.0        0.0        0.0        0.0        0.0        0.0        0.0        0.0        0.0        0.0      0.7       0.2      27.1      28.4      29.8    422.57
    29     8  2024    60     3     272.6     1.6      0.0    0.0    1.6    0.0      4.6      0.0   -9.90      0.0      0.0    100      0.1      0.1   100      0.1     0.1     100     18.6    1.66      0      0      0      0      0    95.2    95.2      0     1.02      0.1      0.1      0.1   100    35.0     9.846     2.3    0.222    0.247     100        2.28    0.000    0.000     272.6    272.6    1.66   196.8     700.1     193.3     143.9      70.8      70.8      40.8    0.000     0.000     0.000     0.000     0.000    1.66     0.00    0.00      0   -9.90   -9.00       13.3       11.8       11.9       11.9       11.8       11.8       11.8       11.8       11.8       11.8       11.8       11.8        0.0        0.0        0.0        0.0        0.0        0.0        0.0        0.0        0.0        0.0        0.0        0.0      1.6       0.1      25.9      26.6      27.4    422.57
    30     8  2024    61     3     301.7    39.8      0.0    0.0   31.6    8.3      2.3      0.0   -9.90      0.0      0.0    100      0.2      0.2   100      0.2     0.2     100     19.4    1.68     -9      0      0      0      0    95.3    95.3      0     1.02      0.2      0.2      0.2   100    35.0    10.205     2.8    0.281    0.312     100        2.83    0.000    0.000     301.7    301.7    1.68   228.4     708.4     195.5     145.9      71.9      71.9      41.3    0.000     0.000     0.000     0.000     0.000    1.68     0.00    0.00      0   -9.90   -9.00       42.1       13.0       11.9       11.8       11.8       11.8       11.8       11.8       11.7       11.7       11.7       11.7        0.0        0.0        0.0        0.0        0.0        0.0        0.0        0.0        0.0        0.0        0.0        0.0     39.8       0.2      26.0      27.4      28.8    422.57
    31     8  2024    62     3     287.5     1.6      0.0    0.0    1.6    0.0     15.6      0.0   -9.90      0.0      0.0    100      0.2      0.2   100      0.2     0.2     100     19.5    1.70     -9      0      0      0      0    95.4    95.4      0     1.02      0.2      0.2      0.2   100    35.0    10.564     3.3    0.354    0.393     100        3.51    0.000    0.000     287.5    287.5    1.70   215.0     716.6     197.8     147.5      72.7      72.7      41.8    0.000     0.000     0.000     0.000     0.000    1.70     0.00    0.00      0   -9.90   -9.00       13.2       12.7       14.4       13.4       12.9       12.6       12.4       12.2       12.1       12.0       12.0       11.9        0.0        0.0        0.0        0.0        0.0        0.0        0.0        0.0        0.0        0.0        0.0        0.0      1.6       0.2      26.2      27.5      28.7    422.57
     1     9  2024    63     3     285.5    10.5      0.0    0.0   10.3    0.2     12.0      0.0   -9.90      0.0      0.0    100      0.2      0.2   100      0.2     0.2     100     18.9    1.71     -9      0      0      0      0    95.5    95.5      0     1.02      0.2      0.2      0.2   100    35.0    10.921     4.1    0.444    0.493     100        4.32    0.000    0.000     285.5    285.5    1.71   215.8     724.8     200.1     149.3      73.5      73.5      42.3    0.000     0.000     0.000     0.000     0.000    1.71     0.00    0.00      0   -9.90   -9.00       22.2       11.9       12.3       12.1       12.1       12.1       12.0       12.0       12.0       11.9       11.9       11.9        0.0        0.0        0.0        0.0        0.0        0.0        0.0        0.0        0.0        0.0        0.0        0.0     10.5       0.2      25.5      26.9      28.4    422.57
     2     9  2024    64     3     296.0    21.3      0.0    0.0   19.3    2.0      8.6      0.0   -9.90      0.0      0.0    100      0.2      0.2   100      0.2     0.2     100     18.8    1.73     -9      0      0      0      0    95.6    95.6      0     1.02      0.2      0.2      0.2   100    35.0    11.278     4.9    0.555    0.616     100        5.31    0.000    0.000     296.0    296.0    1.73   229.0     732.9     202.3     150.9      74.4      74.4      42.7    0.000     0.000     0.000     0.000     0.000    1.73     0.00    0.00      0   -9.90   -9.00       32.2       12.5       12.7       12.3       12.1       12.0       12.0       11.9       11.9       11.9       11.8       11.8        0.0        0.0        0.0        0.0        0.0        0.0        0.0        0.0        0.0        0.0        0.0        0.0     21.3       0.2      25.3      26.8      28.2    422.57
     3     9  2024    65     3     285.8     3.4      0.0    0.0    3.4    0.0     13.4      0.0   -9.90      0.0      0.0    100      0.2      0.2   100      0.2     0.2     100     19.6    1.75     -9      0      0      0      0    95.6    95.6      0     1.02      0.2      0.2      0.2   100    35.0    11.634     5.9    0.689    0.766     100        6.50    0.000    0.000     285.8    285.8    1.75   220.4     741.1     204.6     152.6      75.2      75.2      43.2    0.000     0.000     0.000     0.000     0.000    1.75     0.00    0.00      0   -9.90   -9.00       15.5       12.8       13.6       12.9       12.6       12.4       12.2       12.1       12.0       12.0       12.0       11.9        0.0        0.0        0.0        0.0        0.0        0.0        0.0        0.0        0.0        0.0        0.0        0.0      3.4       0.2      26.4      27.6      28.9    422.57
     4     9  2024    66     3     277.5     2.3      0.0    0.0    2.3    0.0     10.4      0.0   -9.90      0.0      0.0    100      0.2      0.2   100      0.2     0.2     100     19.8    1.77     -9      0      0      0      0    95.7    95.7      0     1.01      0.2      0.2      0.2   100    35.0    11.989     7.1    0.852    0.947     100        7.92    0.000    0.000     277.5    277.5    1.77   214.8     749.2     206.8     154.2      75.9      75.9      43.7    0.000     0.000     0.000     0.000     0.000    1.77     0.00    0.00      0   -9.90   -9.00       14.2       12.1       12.2       12.2       12.1       12.1       12.0       12.0       11.9       11.9       11.9       11.9        0.0        0.0        0.0        0.0        0.0        0.0        0.0        0.0        0.0        0.0        0.0        0.0      2.3       0.1      26.8      27.8      28.9    422.57
     5     9  2024    67     3     275.0     3.1      0.0    0.0    3.1    0.0      5.4      0.0   -9.90      0.0      0.0    100      0.1      0.1   100      0.1     0.1     100     20.3    1.79     -9      0      0      0      0    95.7    95.7      0     1.01      0.1      0.1      0.1   100    35.0    12.343     8.5    1.046    1.162     100        9.59    0.000    0.000     275.0    275.0    1.79   215.0     757.2     209.0     155.8      76.7      76.7      44.2    0.000     0.000     0.000     0.000     0.000    1.79     0.00    0.00      0   -9.90   -9.00       15.0       12.0       12.0       11.9       11.9       11.9       11.8       11.8       11.8       11.8       11.8       11.8        0.0        0.0        0.0        0.0        0.0        0.0        0.0        0.0        0.0        0.0        0.0        0.0      3.1       0.1      27.4      28.3      29.2    422.57
     6     9  2024    68     3     272.8     1.4      0.0    0.0    1.4    0.0      3.4      0.0   -9.90      0.0      0.0    100      0.2      0.2   100      0.2     0.2     100     19.8    1.81     -9      0      0      0      0    95.8    95.8      0     1.01      0.2      0.2      0.2   100    35.0    12.697    10.0    1.269    1.410     100       11.47    0.000    0.000     272.8    272.8    1.81   215.2     765.3     211.2     157.6      77.6      77.6      44.6    0.000     0.000     0.000     0.000     0.000    1.81     0.00    0.00      0   -9.90   -9.00       13.2       12.0       12.0       11.9       11.9       11.8       11.8       11.8       11.8       11.8       11.8       11.8        0.0        0.0        0.0        0.0        0.0        0.0        0.0        0.0        0.0        0.0        0.0        0.0      1.4       0.2      26.6      27.8      28.9    422.57
     7     9  2024    69     4     270.5     0.3      0.0    0.0    0.3    0.0      2.4      0.0   -9.90      0.0      0.0    100      0.2      0.2   100      0.2     0.2     100     19.9    1.83     -9      0      0      0      0    95.8    95.8      0     1.01      0.2      0.2      0.2   100    35.0    13.049    11.5    1.502    1.669     100       13.37    0.000    0.000     270.5    270.5    1.83   215.2     773.3     213.5     159.3      78.5      78.5      45.1    0.000     0.000     0.000     0.000     0.000    1.83     0.00    0.00      0   -9.90   -9.00       11.9       11.9       11.9       11.8       11.8       11.8       11.8       11.8       11.8       11.7       11.7       11.7        0.0        0.0        0.0        0.0        0.0        0.0        0.0        0.0        0.0        0.0        0.0        0.0      0.3       0.2      26.6      27.9      29.2    422.57
     8     9  2024    70     4     270.5     1.4      0.0    0.0    1.4    0.0      1.3      0.0   -9.90      0.0      0.0    100      0.2      0.2   100      0.2     0.2     100     19.7    1.85     -9      0      0      0      0    95.8    95.8      0     1.00      0.2      0.2      0.2   100    35.0    13.401    13.0    1.747    1.941     100       15.28    0.000    0.000     270.5    270.5    1.85   217.5     781.3     215.7     161.0      79.4      79.4      45.6    0.000     0.000     0.000     0.000     0.000    1.85     0.00    0.00      0   -9.90   -9.00       13.0       11.7       11.7       11.7       11.7       11.7       11.7       11.7       11.7       11.7       11.7       11.7        0.0        0.0        0.0        0.0        0.0        0.0        0.0        0.0        0.0        0.0        0.0        0.0      1.4       0.2      26.0      27.7      29.3    422.57
     9     9  2024    71     4     290.0    23.0      0.0    0.0   20.5    2.4      0.9      0.0   -9.90      0.0      0.0    100      0.2      0.2   100      0.2     0.2     100     18.5    1.87     -9      0      0      0      0    95.9    95.9      0     1.00      0.2      0.2      0.2   100    35.0    13.751    14.6    2.001    2.224     100       17.28    0.000    0.000     290.0    290.0    1.87   239.2     789.2     217.9     162.4      80.0      80.0      46.1    0.000     0.000     0.000     0.000     0.000    1.87     0.00    0.00      0   -9.90   -9.00       32.6       11.8       11.8       11.8       11.7       11.7       11.7       11.7       11.7       11.7       11.7       11.7        0.0        0.0        0.0        0.0        0.0        0.0        0.0        0.0        0.0        0.0        0.0        0.0     23.0       0.1      25.5      26.5      27.6    422.57
    10     9  2024    72     4     317.9    50.1      0.0    0.0   37.1   13.0      9.1      0.0   -9.90      0.0      0.0    100      0.1      0.1   100      0.2     0.2     100     19.0    1.89     -9      0      0      0      0    95.9    95.9      0     1.00      0.1      0.1      0.1   100    35.0    14.101    16.1    2.267    2.518     100       19.32    0.000    0.000     317.9    317.9    1.89   268.7     797.2     220.0     164.1      80.8      80.8      46.5    0.000     0.000     0.000     0.000     0.000    1.89     0.00    0.00      0   -9.90   -9.00       42.1       17.9       13.6       12.8       12.4       12.3       12.1       12.1       11.9       11.9       11.9       11.9        0.0        0.0        0.0        0.0        0.0        0.0        0.0        0.0        0.0        0.0        0.0        0.0     50.1       0.1      26.0      27.0      28.0    422.57
    11     9  2024    73     4     304.4    13.9      0.0    0.0   13.3    0.6     26.6      0.0   -9.90      0.0      0.0    100      0.2      0.2   100      0.2     0.2     100     19.0    1.90     -9      0      0      0      0    95.9    95.9      0     0.99      0.2      0.2      0.2   100    35.0    14.449    17.6    2.542    2.825     100       21.36    0.000    0.000     304.4    304.4    1.90   256.4     805.1     222.2     165.8      81.7      81.7      47.0    0.000     0.000     0.000     0.000     0.000    1.90     0.00    0.00      0   -9.90   -9.00       25.1       12.3       14.7       13.9       13.4       13.0       12.7       12.5       12.4       12.3       12.2       12.1        0.0        0.0        0.0        0.0        0.0        0.0        0.0        0.0        0.0        0.0        0.0        0.0     13.9       0.2      25.6      27.0      28.4    422.57
    12     9  2024    74     4     286.0     3.6      0.0    0.0    3.6    0.0     21.8      0.0   -9.90      0.0      0.0    100      0.2      0.2   100      0.2     0.2     100     19.2    1.92     -9      0      0      0      0    95.9    95.9      0     0.99      0.2      0.2      0.2   100    35.0    14.797    19.1    2.828    3.143     100       23.37    0.000    0.000     286.0    286.0    1.92   240.6     813.0     224.4     167.6      82.7      82.7      47.5    0.000     0.000     0.000     0.000     0.000    1.92     0.00    0.00      0   -9.90   -9.00       15.7       12.6       13.0       12.7       12.5       12.4       12.3       12.2       12.2       12.1       12.1       12.0        0.0        0.0        0.0        0.0        0.0        0.0        0.0        0.0        0.0        0.0        0.0        0.0      3.6       0.2      25.4      27.2      29.1    422.57
    13     9  2024    75     4     284.0     9.2      0.0    0.0    9.1    0.1     11.0      0.0   -9.90      0.0      0.0    100      0.2      0.2   100      0.2     0.2     100     19.6    1.94     -9      0      0      0      0    95.9    95.9      0     0.99      0.2      0.2      0.2   100    35.0    15.144    20.6    3.125    3.472     100       25.41    0.000    0.000     284.0    284.0    1.94   241.3     820.8     226.6     169.3      83.5      83.5      47.9    0.000     0.000     0.000     0.000     0.000    1.94     0.00    0.00      0   -9.90   -9.00       21.3       12.1       12.2       12.1       12.0       12.0       12.0       11.9       11.9       11.9       11.9       11.9        0.0        0.0        0.0        0.0        0.0        0.0        0.0        0.0        0.0        0.0        0.0        0.0      9.2       0.2      25.8      27.6      29.4    422.57
    14     9  2024    76     4     283.2     7.2      0.0    0.0    7.2    0.0      7.7      0.0   -9.90      0.0      0.0    100      0.2      0.2   100      0.2     0.2     100     19.0    1.96     -9      0     -9      0      0    95.3    95.3      0     0.98      0.2      0.2      0.2   100    35.0    15.486    22.2    3.431    3.812     100       27.52    0.000    0.000     283.2    283.2    1.96   243.0     828.6     228.7     170.7      84.1      84.1      48.4    0.000     0.000     0.000     0.000     0.000    1.96     0.00    0.00      0   -9.90   -9.00       19.7       12.4       12.6       12.3       12.1       12.0       11.9       11.9       11.9       11.8       11.8       11.8        0.0        0.0        0.0        0.0        0.0        0.0        0.0        0.0        0.0        0.0        0.0        0.0      7.2       0.2      25.6      27.0      28.3    422.57
    15     9  2024    77     4     285.4     9.8      0.0    0.0    9.6    0.2      7.2      0.0   -9.90      0.0      0.0    100      0.2      0.2   100      0.2     0.2     100     19.4    1.98     -9      0     -9      0      0    94.6    94.6      0     0.96      0.2      0.2      0.2   100    35.0    15.823    23.7    3.746    4.162     100       29.63    0.000    0.000     285.4    285.4    1.98   247.3     836.4     230.9     172.3      85.0      85.0      48.8    0.000     0.000     0.000     0.000     0.000    1.98     0.00    0.00      0   -9.90   -9.00       22.2       12.4       12.5       12.2       12.1       12.0       11.9       11.9       11.9       11.8       11.8       11.8        0.0        0.0        0.0        0.0        0.0        0.0        0.0        0.0        0.0        0.0        0.0        0.0      9.8       0.2      25.9      27.4      28.9    422.57
    16     9  2024    78     4     287.7    10.7      0.0    0.0   10.4    0.2      8.1      0.0   -9.90      0.0      0.0    100      0.1      0.1   100      0.1     0.1     100     18.3    2.00     -9      0     -9      0      0    93.9    93.9      0     0.95      0.1      0.1      0.1   100    35.0    16.155    25.2    4.070    4.523     100       31.93    0.000    0.000     287.7    287.7    2.00   251.7     844.2     233.0     173.5      85.5      85.5      49.3    0.000     0.000     0.000     0.000     0.000    2.00     0.00    0.00      0   -9.90   -9.00       23.2       12.5       12.7       12.3       12.2       12.1       12.0       11.9       11.9       11.9       11.8       11.8        0.0        0.0        0.0        0.0        0.0        0.0        0.0        0.0        0.0        0.0        0.0        0.0     10.7       0.1      25.6      26.3      26.9    422.57
    17     9  2024    79     4     311.9    43.9      0.0    0.0   33.8   10.0      9.5      0.0   -9.90      0.0      0.0    100      0.1      0.1   100      0.1     0.1     100     18.3    2.01     -9      0     -9      0      0    93.0    93.0      0     0.93      0.1      0.1      0.1   100    35.0    16.481    26.7    4.403    4.892     100       34.25    0.000    0.000     311.9    311.9    2.01   278.0     852.0     235.2     175.1      86.2      86.2      49.8    0.000     0.000     0.000     0.000     0.000    2.01     0.00    0.00      0   -9.90   -9.00       42.2       15.5       12.8       12.4       12.2       12.1       12.1       12.0       11.9       11.9       11.9       11.9        0.0        0.0        0.0        0.0        0.0        0.0        0.0        0.0        0.0        0.0        0.0        0.0     43.9       0.1      25.7      26.3      26.9    422.57
    18     9  2024    80     4     312.6    27.2      0.0    0.0   23.6    3.6     22.7      0.0   -9.90      0.0      0.0    100      0.1      0.1   100      0.2     0.2     100     18.7    2.03     -9      0     -9      0      0    92.0    92.0      0     0.91      0.1      0.1      0.1   100    35.0    16.801    28.2    4.744    5.271     100       36.48    0.000    0.000     312.6    312.6    2.03   280.4     859.7     237.3     177.0      87.3      87.3      50.2    0.000     0.000     0.000     0.000     0.000    2.03     0.00    0.00      0   -9.90   -9.00       35.6       12.5       14.6       13.7       13.2       12.8       12.6       12.4       12.3       12.2       12.1       12.0        0.0        0.0        0.0        0.0        0.0        0.0        0.0        0.0        0.0        0.0        0.0        0.0     27.2       0.2      25.5      26.7      27.9    422.57
    19     9  2024    81     4     295.6     7.8      0.0    0.0    7.8    0.1     24.6      0.0   -9.90      0.0      0.0    100      0.1      0.1   100      0.1     0.1     100     18.7    2.05     -9      0     -9      0      0    90.9    90.9      0     0.89      0.1      0.1      0.1   100    35.0    17.113    29.8    5.092    5.658     100       38.71    0.000    0.000     295.6    295.6    2.05   265.5     867.4     239.4     178.6      88.0      88.0      50.7    0.000     0.000     0.000     0.000     0.000    2.05     0.00    0.00      0   -9.90   -9.00       20.3       12.9       13.9       13.2       12.9       12.7       12.5       12.4       12.3       12.2       12.1       12.1        0.0        0.0        0.0        0.0        0.0        0.0        0.0        0.0        0.0        0.0        0.0        0.0      7.8       0.2      25.5      26.7      27.9    422.57
    20     9  2024    82     4     282.9     3.9      0.0    0.0    3.9    0.0     16.4      0.0   -9.90      0.0      0.0    100      0.2      0.2   100      0.2     0.2     100     19.8    2.07     -9      0     -9      0      0    89.6    89.6      0     0.87      0.2      0.2      0.2   100    35.0    17.418    31.3    5.448    6.053     100       40.90    0.000    0.000     282.9    282.9    2.07   255.3     875.1     241.5     180.3      88.9      88.9      51.1    0.000     0.000     0.000     0.000     0.000    2.07     0.00    0.00      0   -9.90   -9.00       16.1       12.4       12.6       12.4       12.3       12.2       12.1       12.1       12.0       12.0       12.0       11.9        0.0        0.0        0.0        0.0        0.0        0.0        0.0        0.0        0.0        0.0        0.0        0.0      3.9       0.2      26.3      27.8      29.2    422.57
    21     9  2024    83     4     281.3     7.2      0.0    0.0    7.2    0.0      8.6      0.0   -9.90      0.0      0.0    100      0.1      0.1   100      0.2     0.2     100     18.9    2.09     -9      0     -9      0      0    88.2    88.2      0     0.84      0.1      0.1      0.1   100    35.0    17.714    32.8    5.810    6.455     100       43.12    0.000    0.000     281.3    281.3    2.09   256.1     882.8     243.7     181.8      89.6      89.6      51.6    0.000     0.000     0.000     0.000     0.000    2.09     0.00    0.00      0   -9.90   -9.00       19.4       12.1       12.2       12.1       12.0       12.0       11.9       11.9       11.9       11.9       11.8       11.8        0.0        0.0        0.0        0.0        0.0        0.0        0.0        0.0        0.0        0.0        0.0        0.0      7.2       0.2      25.6      26.9      28.3    422.57
    22     9  2024    84     4     305.2    38.0      0.0    0.0   30.5    7.5      6.4      0.0   -9.90      0.0      0.0    100      0.1      0.1   100      0.1     0.1     100     18.6    2.10     -9      0     -9      0      0    86.6    86.6      0     0.82      0.1      0.1      0.1   100    35.0    18.001    34.3    6.177    6.864     100       45.43    0.000    0.000     305.2    305.2    2.10   282.2     890.4     245.8     183.2      90.3      90.3      52.0    0.000     0.000     0.000     0.000     0.000    2.10     0.00    0.00      0   -9.90   -9.00       42.2       12.7       12.5       12.3       12.1       12.0       11.9       11.9       11.8       11.8       11.8       11.8        0.0        0.0        0.0        0.0        0.0        0.0        0.0        0.0        0.0        0.0        0.0        0.0     38.0       0.1      25.7      26.6      27.5    422.57
    23     9  2024    85     4     304.8    19.6      0.0    0.0   18.0    1.6     18.3      0.0   -9.90      0.0      0.0    100      0.1      0.1   100      0.2     0.2     100     19.2    2.12     -9      0     -9      0      0    84.8    84.8      0     0.79      0.1      0.1      0.1   100    35.0    18.277    35.8    6.550    7.278     100       47.63    0.000    0.000     304.8    304.8    2.12   283.6     898.0     247.9     185.0      91.2      91.2      52.5    0.000     0.000     0.000     0.000     0.000    2.12     0.00    0.00      0   -9.90   -9.00       29.9       12.7       14.3       13.5       13.0       12.7       12.4       12.3       12.2       12.1       12.0       12.0        0.0        0.0        0.0        0.0        0.0        0.0        0.0        0.0        0.0        0.0        0.0        0.0     19.6       0.2      25.6      27.2      28.8    422.57
    24     9  2024    86     4     286.8     2.6      0.0    0.0    2.6    0.0     20.4      0.0   -9.90      0.0      0.0    100      0.1      0.1   100      0.2     0.2     100     19.7    2.14     -9      0     -9      0      0    82.8    82.8      0     0.76      0.1      0.1      0.1   100    35.0    18.542    37.4    6.927    7.697     100       49.82    0.000    0.000     286.8    286.8    2.14   267.7     905.6     250.0     186.6      92.0      92.0      52.9    0.000     0.000     0.000     0.000     0.000    2.14     0.00    0.00      0   -9.90   -9.00       14.5       12.8       13.4       12.9       12.7       12.5       12.3       12.2       12.2       12.1       12.1       12.0        0.0        0.0        0.0        0.0        0.0        0.0        0.0        0.0        0.0        0.0        0.0        0.0      2.6       0.2      26.1      27.7      29.2    422.57
    25     9  2024    87     4     288.0    13.6      0.0    0.0   13.0    0.6     11.7      0.0   -9.90      0.0      0.0    100      0.1      0.1   100      0.1     0.1     100     17.8    2.16     -9      0     -9      0      0    80.5    80.5      0     0.72      0.1      0.1      0.1   100    35.0    18.795    38.9    7.307    8.119     100       52.19    0.000    0.000     288.0    288.0    2.16   271.3     913.2     252.1     187.7      92.5      92.5      53.4    0.000     0.000     0.000     0.000     0.000    2.16     0.00    0.00      0   -9.90   -9.00       25.3       12.1       12.1       12.1       12.1       12.0       12.0       12.0       11.9       11.9       11.9       11.9        0.0        0.0        0.0        0.0        0.0        0.0        0.0        0.0        0.0        0.0        0.0        0.0     13.6       0.1      25.1      25.8      26.5    422.57
[...]
    10    12  2025    -9     0     263.9     0.0      0.0    0.0    0.0    0.0      0.0      0.0   -9.90      0.3      0.2     81      0.0      0.0   100      0.3     0.2      81     18.4    2.28     -9     -9     -9      0     -9     0.0     0.0      0    -9.00      0.0      0.0      0.0   100    35.1    20.220    48.0    9.706   10.784     100       63.05    0.000    0.000     263.9    263.9    2.28   261.8     965.7     266.5     199.1      98.4      98.2      56.5    0.000     0.000     0.000     0.000     0.000    2.28     0.00    0.00      0   -9.90   -9.00        6.9       11.7       11.7       11.7       11.7       11.7       11.7       11.7       11.7       11.7       11.7       11.7        0.0        0.0        0.0        0.0        0.0        0.0        0.0        0.0        0.0        0.0        0.0        0.0      0.0       0.2      23.4      26.4      29.4    424.57
    11    12  2025    -9     0     263.6     0.0      0.0    0.0    0.0    0.0      0.0      0.0   -9.90      0.3      0.2     75      0.0      0.0   100      0.3     0.2      75     17.8    2.28     -9     -9     -9      0     -9     0.0     0.0      0    -9.00      0.0      0.0      0.0   100    35.1    20.220    48.0    9.706   10.784     100       63.05    0.000    0.000     263.6    263.6    2.28   261.6     965.7     266.5     199.1      98.5      98.2      56.5    0.000     0.000     0.000     0.000     0.000    2.28     0.00    0.00      0   -9.90   -9.00        6.7       11.7       11.7       11.7       11.7       11.7       11.7       11.7       11.7       11.7       11.7       11.7        0.0        0.0        0.0        0.0        0.0        0.0        0.0        0.0        0.0        0.0        0.0        0.0      0.0       0.2      22.6      25.8      28.9    424.57
    12    12  2025    -9     0     263.5     0.0      0.0    0.0    0.0    0.0      0.0      0.0   -9.90      0.3      0.2     69      0.0      0.0   100      0.3     0.2      69     17.5    2.28     -9     -9     -9      0     -9     0.0     0.0      0    -9.00      0.0      0.0      0.0   100    35.1    20.220    48.0    9.706   10.784     100       63.05    0.000    0.000     263.5    263.5    2.28   261.4     965.7     266.5     199.1      98.5      98.2      56.5    0.000     0.000     0.000     0.000     0.000    2.28     0.00    0.00      0   -9.90   -9.00        6.5       11.7       11.7       11.7       11.7       11.7       11.7       11.7       11.7       11.7       11.7       11.7        0.0        0.0        0.0        0.0        0.0        0.0        0.0        0.0        0.0        0.0        0.0        0.0      0.0       0.2      22.2      25.5      28.8    424.57
    13    12  2025    -9     0     263.3     0.0      0.0    0.0    0.0    0.0      0.0      0.0   -9.90      0.3      0.2     65      0.0      0.0   100      0.3     0.2      65     17.0    2.28     -9     -9     -9      0     -9     0.0     0.0      0    -9.00      0.0      0.0      0.0   100    35.1    20.220    48.0    9.706   10.784     100       63.05    0.000    0.000     263.3    263.3    2.28   261.2     965.7     266.5     199.1      98.4      98.2      56.5    0.000     0.000     0.000     0.000     0.000    2.28     0.00    0.00      0   -9.90   -9.00        6.3       11.7       11.7       11.7       11.7       11.7       11.7       11.7       11.7       11.7       11.7       11.7        0.0        0.0        0.0        0.0        0.0        0.0        0.0        0.0        0.0        0.0        0.0        0.0      0.0       0.2      22.1      25.0      28.0    424.57
    14    12  2025    -9     0     263.1     0.0      0.0    0.0    0.0    0.0      0.0      0.0   -9.90      0.3      0.2     61      0.0      0.0   100      0.3     0.2      61     14.9    2.28     -9     -9     -9      0     -9     0.0     0.0      0    -9.00      0.0      0.0      0.0   100    35.1    20.220    48.0    9.706   10.784     100       63.05    0.000    0.000     263.1    263.1    2.28   261.1     965.7     266.5     199.1      98.4      98.2      56.5    0.000     0.000     0.000     0.000     0.000    2.28     0.00    0.00      0   -9.90   -9.00        6.1       11.7       11.7       11.7       11.7       11.7       11.7       11.7       11.7       11.7       11.7       11.7        0.0        0.0        0.0        0.0        0.0        0.0        0.0        0.0        0.0        0.0        0.0        0.0      0.0       0.2      19.9      22.9      25.8    424.57
    15    12  2025    -9     0     263.0     0.0      0.0    0.0    0.0    0.0      0.0      0.0   -9.90      0.3      0.2     58      0.0      0.0   100      0.3     0.2      58     15.2    2.28     -9     -9     -9      0     -9     0.0     0.0      0    -9.00      0.0      0.0      0.0   100    35.1    20.220    48.0    9.706   10.784     100       63.05    0.000    0.000     263.0    263.0    2.28   260.9     965.7     266.5     199.1      98.5      98.2      56.5    0.000     0.000     0.000     0.000     0.000    2.28     0.00    0.00      0   -9.90   -9.00        6.0       11.7       11.7       11.7       11.7       11.7       11.7       11.7       11.7       11.7       11.7       11.7        0.0        0.0        0.0        0.0        0.0        0.0        0.0        0.0        0.0        0.0        0.0        0.0      0.0       0.2      19.6      23.2      26.8    424.57
    16    12  2025    -9     0     262.8     0.0      0.0    0.0    0.0    0.0      0.0      0.0   -9.90      0.3      0.1     55      0.0      0.0   100      0.3     0.1      55     16.9    2.28     -9     -9     -9      0     -9     0.0     0.0      0    -9.00      0.0      0.0      0.0   100    35.1    20.220    48.0    9.706   10.784     100       63.05    0.000    0.000     262.8    262.8    2.28   260.8     965.7     266.5     199.1      98.4      98.2      56.5    0.000     0.000     0.000     0.000     0.000    2.28     0.00    0.00      0   -9.90   -9.00        5.8       11.7       11.7       11.7       11.7       11.7       11.7       11.7       11.7       11.7       11.7       11.7        0.0        0.0        0.0        0.0        0.0        0.0        0.0        0.0        0.0        0.0        0.0        0.0      0.0       0.2      22.0      24.9      27.9    424.57
    17    12  2025    -9     0     262.7     0.0      0.0    0.0    0.0    0.0      0.0      0.0   -9.90      0.2      0.1     52      0.0      0.0   100      0.2     0.1      52     16.9    2.28     -9     -9     -9      0     -9     0.0     0.0      0    -9.00      0.0      0.0      0.0   100    35.1    20.220    48.0    9.706   10.784     100       63.05    0.000    0.000     262.7    262.7    2.28   260.7     965.7     266.5     199.1      98.3      98.2      56.5    0.000     0.000     0.000     0.000     0.000    2.28     0.00    0.00      0   -9.90   -9.00        5.7       11.7       11.7       11.7       11.7       11.7       11.7       11.7       11.7       11.7       11.7       11.7        0.0        0.0        0.0        0.0        0.0        0.0        0.0        0.0        0.0        0.0        0.0        0.0      0.0       0.2      22.3      24.9      27.5    424.57
    18    12  2025    -9     0     262.6     0.0      0.0    0.0    0.0    0.0      0.0      0.0   -9.90      0.2      0.1     50      0.0      0.0   100      0.2     0.1      50     16.0    2.28     -9     -9     -9      0     -9     0.0     0.0      0    -9.00      0.0      0.0      0.0   100    35.1    20.220    48.0    9.706   10.784     100       63.05    0.000    0.000     262.6    262.6    2.28   260.5     965.7     266.5     199.1      98.3      98.2      56.5    0.000     0.000     0.000     0.000     0.000    2.28     0.00    0.00      0   -9.90   -9.00        5.6       11.7       11.7       11.7       11.7       11.7       11.7       11.7       11.7       11.7       11.7       11.7        0.0        0.0        0.0        0.0        0.0        0.0        0.0        0.0        0.0        0.0        0.0        0.0      0.0       0.2      21.3      24.0      26.8    424.57
    19    12  2025    -9     0     262.4     0.0      0.0    0.0    0.0    0.0      0.0      0.0   -9.90      0.3      0.1     48      0.0      0.0   100      0.3     0.1      48     15.8    2.28     -9     -9     -9      0     -9     0.0     0.0      0    -9.00      0.0      0.0      0.0   100    35.1    20.220    48.0    9.706   10.784     100       63.05    0.000    0.000     262.4    262.4    2.28   260.4     965.7     266.5     199.1      98.5      98.2      56.5    0.000     0.000     0.000     0.000     0.000    2.28     0.00    0.00      0   -9.90   -9.00        5.4       11.7       11.7       11.7       11.7       11.7       11.7       11.7       11.7       11.7       11.7       11.7        0.0        0.0        0.0        0.0        0.0        0.0        0.0        0.0        0.0        0.0        0.0        0.0      0.0       0.2      20.2      23.8      27.4    424.57
    20    12  2025    -9     0     262.3     0.0      0.0    0.0    0.0    0.0      0.0      0.0   -9.90      0.3      0.1     46      0.0      0.0   100      0.3     0.1      46     16.9    2.28     -9     -9     -9      0     -9     0.0     0.0      0    -9.00      0.0      0.0      0.0   100    35.1    20.220    48.0    9.706   10.784     100       63.05    0.000    0.000     262.3    262.3    2.28   260.3     965.7     266.5     199.1      98.5      98.2      56.5    0.000     0.000     0.000     0.000     0.000    2.28     0.00    0.00      0   -9.90   -9.00        5.3       11.7       11.7       11.7       11.7       11.7       11.7       11.7       11.7       11.7       11.7       11.7        0.0        0.0        0.0        0.0        0.0        0.0        0.0        0.0        0.0        0.0        0.0        0.0      0.0       0.3      21.3      24.9      28.5    424.57
    21    12  2025    -9     0     262.2     0.0      0.0    0.0    0.0    0.0      0.0      0.0   -9.90      0.3      0.1     44      0.0      0.0   100      0.3     0.1      44     16.8    2.28     -9     -9     -9      0     -9     0.0     0.0      0    -9.00      0.0      0.0      0.0   100    35.1    20.220    48.0    9.706   10.784     100       63.05    0.000    0.000     262.2    262.2    2.28   260.1     965.7     266.5     199.1      98.5      98.2      56.5    0.000     0.000     0.000     0.000     0.000    2.28     0.00    0.00      0   -9.90   -9.00        5.2       11.7       11.7       11.7       11.7       11.7       11.7       11.7       11.7       11.7       11.7       11.7        0.0        0.0        0.0        0.0        0.0        0.0        0.0        0.0        0.0        0.0        0.0        0.0      0.0       0.3      21.2      24.8      28.4    424.57
    22    12  2025    -9     0     262.1     0.0      0.0    0.0    0.0    0.0      0.0      0.0   -9.90      0.3      0.1     42      0.0      0.0   100      0.3     0.1      42     16.8    2.28     -9     -9     -9      0     -9     0.0     0.0      0    -9.00      0.0      0.0      0.0   100    35.1    20.220    48.0    9.706   10.784     100       63.05    0.000    0.000     262.1    262.1    2.28   260.0     965.7     266.5     199.1      98.5      98.2      56.5    0.000     0.000     0.000     0.000     0.000    2.28     0.00    0.00      0   -9.90   -9.00        5.1       11.7       11.7       11.7       11.7       11.7       11.7       11.7       11.7       11.7       11.7       11.7        0.0        0.0        0.0        0.0        0.0        0.0        0.0        0.0        0.0        0.0        0.0        0.0      0.0       0.2      21.4      24.8      28.2    424.57
    23    12  2025    -9     0     262.0     0.0      0.0    0.0    0.0    0.0      0.0      0.0   -9.90      0.3      0.1     40      0.0      0.0   100      0.3     0.1      40     16.9    2.28     -9     -9     -9      0     -9     0.0     0.0      0    -9.00      0.0      0.0      0.0   100    35.1    20.220    48.0    9.706   10.784     100       63.05    0.000    0.000     262.0    262.0    2.28   259.9     965.7     266.5     199.1      98.5      98.2      56.5    0.000     0.000     0.000     0.000     0.000    2.28     0.00    0.00      0   -9.90   -9.00        5.0       11.7       11.7       11.7       11.7       11.7       11.7       11.7       11.7       11.7       11.7       11.7        0.0        0.0        0.0        0.0        0.0        0.0        0.0        0.0        0.0        0.0        0.0        0.0      0.0       0.2      21.7      24.9      28.1    424.57
    24    12  2025    -9     0     261.9     0.0      0.0    0.0    0.0    0.0      0.0      0.0   -9.90      0.2      0.1     39      0.0      0.0   100      0.2     0.1      39     17.2    2.28     -9     -9     -9      0     -9     0.0     0.0      0    -9.00      0.0      0.0      0.0   100    35.1    20.220    48.0    9.706   10.784     100       63.05    0.000    0.000     261.9    261.9    2.28   259.8     965.7     266.5     199.1      98.3      98.2      56.5    0.000     0.000     0.000     0.000     0.000    2.28     0.00    0.00      0   -9.90   -9.00        4.9       11.7       11.7       11.7       11.7       11.7       11.7       11.7       11.7       11.7       11.7       11.7        0.0        0.0        0.0        0.0        0.0        0.0        0.0        0.0        0.0        0.0        0.0        0.0      0.0       0.2      22.7      25.2      27.8    424.57
    25    12  2025    -9     0     261.8     0.0      0.0    0.0    0.0    0.0      0.0      0.0   -9.90      0.3      0.1     37      0.0      0.0   100      0.3     0.1      37     17.0    2.28     -9     -9     -9      0     -9     0.0     0.0      0    -9.00      0.0      0.0      0.0   100    35.1    20.220    48.0    9.706   10.784     100       63.05    0.000    0.000     261.8    261.8    2.28   259.7     965.7     266.5     199.1      98.5      98.2      56.5    0.000     0.000     0.000     0.000     0.000    2.28     0.00    0.00      0   -9.90   -9.00        4.8       11.7       11.7       11.7       11.7       11.7       11.7       11.7       11.7       11.7       11.7       11.7        0.0        0.0        0.0        0.0        0.0        0.0        0.0        0.0        0.0        0.0        0.0        0.0      0.0       0.3      21.5      25.0      28.6    424.57
    26    12  2025    -9     0     261.7     0.0      0.0    0.0    0.0    0.0      0.0      0.0   -9.90      0.3      0.1     36      0.0      0.0   100      0.3     0.1      36     16.5    2.28     -9     -9     -9      0     -9     0.0     0.0      0    -9.00      0.0      0.0      0.0   100    35.1    20.220    48.0    9.706   10.784     100       63.05    0.000    0.000     261.7    261.7    2.28   259.6     965.7     266.5     199.1      98.5      98.2      56.5    0.000     0.000     0.000     0.000     0.000    2.28     0.00    0.00      0   -9.90   -9.00        4.7       11.7       11.7       11.7       11.7       11.7       11.7       11.7       11.7       11.7       11.7       11.7        0.0        0.0        0.0        0.0        0.0        0.0        0.0        0.0        0.0        0.0        0.0        0.0      0.0       0.2      21.2      24.5      27.7    424.57
    27    12  2025    -9     0     261.6     0.0      0.0    0.0    0.0    0.0      0.0      0.0   -9.90      0.3      0.1     35      0.0      0.0   100      0.3     0.1      35     16.2    2.28     -9     -9     -9      0     -9     0.0     0.0      0    -9.00      0.0      0.0      0.0   100    35.1    20.220    48.0    9.706   10.784     100       63.05    0.000    0.000     261.6    261.6    2.28   259.5     965.7     266.5     199.1      98.5      98.2      56.5    0.000     0.000     0.000     0.000     0.000    2.28     0.00    0.00      0   -9.90   -9.00        4.6       11.7       11.7       11.7       11.7       11.7       11.7       11.7       11.7       11.7       11.7       11.7        0.0        0.0        0.0        0.0        0.0        0.0        0.0        0.0        0.0        0.0        0.0        0.0      0.0       0.2      20.6      24.2      27.7    424.57
    28    12  2025    -9     0     261.5     0.0      0.0    0.0    0.0    0.0      0.0      0.0   -9.90      0.3      0.1     33      0.0      0.0   100      0.3     0.1      33     16.7    2.28     -9     -9     -9      0     -9     0.0     0.0      0    -9.00      0.0      0.0      0.0   100    35.1    20.220    48.0    9.706   10.784     100       63.05    0.000    0.000     261.5    261.5    2.28   259.4     965.7     266.5     199.1      98.5      98.2      56.5    0.000     0.000     0.000     0.000     0.000    2.28     0.00    0.00      0   -9.90   -9.00        4.5       11.7       11.7       11.7       11.7       11.7       11.7       11.7       11.7       11.7       11.7       11.7        0.0        0.0        0.0        0.0        0.0        0.0        0.0        0.0        0.0        0.0        0.0        0.0      0.0       0.3      21.1      24.7      28.3    424.57
    29    12  2025    -9     0     261.4     0.0      0.0    0.0    0.0    0.0      0.0      0.0   -9.90      0.3      0.1     32      0.0      0.0   100      0.3     0.1      32     17.7    2.28     -9     -9     -9      0     -9     0.0     0.0      0    -9.00      0.0      0.0      0.0   100    35.1    20.220    48.0    9.706   10.784     100       63.05    0.000    0.000     261.4    261.4    2.28   259.3     965.7     266.5     199.1      98.6      98.2      56.5    0.000     0.000     0.000     0.000     0.000    2.28     0.00    0.00      0   -9.90   -9.00        4.4       11.7       11.7       11.7       11.7       11.7       11.7       11.7       11.7       11.7       11.7       11.7        0.0        0.0        0.0        0.0        0.0        0.0        0.0        0.0        0.0        0.0        0.0        0.0      0.0       0.3      22.1      25.7      29.3    424.57
    30    12  2025    -9     0     261.3     0.0      0.0    0.0    0.0    0.0      0.0      0.0   -9.90      0.3      0.1     31      0.0      0.0   100      0.3     0.1      31     18.1    2.28     -9     -9     -9      0     -9     0.0     0.0      0    -9.00      0.0      0.0      0.0   100    35.1    20.220    48.0    9.706   10.784     100       63.05    0.000    0.000     261.3    261.3    2.28   259.2     965.7     266.5     199.1      98.6      98.2      56.5    0.000     0.000     0.000     0.000     0.000    2.28     0.00    0.00      0   -9.90   -9.00        4.3       11.7       11.7       11.7       11.7       11.7       11.7       11.7       11.7       11.7       11.7       11.7        0.0        0.0        0.0        0.0        0.0        0.0        0.0        0.0        0.0        0.0        0.0        0.0      0.0       0.3      22.3      26.1      29.9    424.57
    31    12  2025    -9     0     261.2     0.0      0.0    0.0    0.0    0.0      0.0      0.0   -9.90      0.3      0.1     30      0.0      0.0   100      0.3     0.1      30     18.1    2.28     -9     -9     -9      0     -9     0.0     0.0      0    -9.00      0.0      0.0      0.0   100    35.1    20.220    48.0    9.706   10.784     100       63.05    0.000    0.000     261.2    261.2    2.28   259.1     965.7     266.5     199.1      98.7      98.2      56.5    0.000     0.000     0.000     0.000     0.000    2.28     0.00    0.00      0   -9.90   -9.00        4.2       11.7       11.7       11.7       11.7       11.7       11.7       11.7       11.7       11.7       11.7       11.7        0.0        0.0        0.0        0.0        0.0        0.0        0.0        0.0        0.0        0.0        0.0        0.0      0.0       0.3      22.1      26.2      30.3    424.57
