AquaCrop 7.1 (August 2023) - Output created on (date) : 16-01-2026   at (time) : 12:17:26

    RunNr     Day1   Month1    Year1     Rain      ETo       GD     CO2      Irri   Infilt   Runoff    Drain   Upflow        E     E/Ex       Tr      TrW   Tr/Trx    SaltIn   SaltOut    SaltUp  SaltProf     Cycle   SaltStr  FertStr  WeedStr  TempStr   ExpStr   StoStr  BioMass  Brelative   HI    Y(dry)  Y(fresh)    WPet      Bin     Bout     DayN   MonthN    YearN
                                           mm       mm  degC.day    ppm        mm       mm       mm       mm       mm       mm        %       mm       mm        %    ton/ha    ton/ha    ton/ha    ton/ha      days       %        %        %        %        %        %    ton/ha        %       %    ton/ha   ton/ha    kg/m3   ton/ha   ton/ha
   Tot(1)        1        7     2011   1080.8   2444.7   3123.5   391.85    631.0   1078.1      2.7      0.0      0.0    928.7       53    826.9    826.9      100     0.000     0.000     0.000     0.000       89        0       30        0        0        1        0    19.715       99     48.1    9.492   10.547     0.82    0.000    0.000       31       12     2011  cluster_340.PRM
   Tot(2)        1        7     2012   1194.2   2444.8   3117.1   394.06    492.9   1189.8      4.3      8.9      0.0    907.3       52    824.1    824.1      100     0.000     0.000     0.000     0.000       89        0       30        0        0        1        0    19.696       98     48.2    9.489   10.543     0.81    0.000    0.000       31       12     2012  cluster_340.PRM
   Tot(3)        1        7     2013   1195.7   2451.6   3123.7   396.74    462.5   1188.6      7.1      0.7      0.0    876.8       50    825.8    825.8      100     0.000     0.000     0.000     0.000       89        0       30        0        0        1        0    19.677       98     48.1    9.474   10.527     0.83    0.000    0.000       31       12     2013  cluster_340.PRM
   Tot(4)        1        7     2014   1087.4   2431.1   3133.8   398.81    576.2   1085.1      2.3      0.0      0.0    882.3       51    826.7    826.7      100     0.000     0.000     0.000     0.000       89        0       30        0        0        0        0    19.956      100     48.2    9.614   10.682     0.82    0.000    0.000       31       12     2014  cluster_340.PRM
   Tot(5)        1        7     2015    968.1   2456.5   3126.4   401.01    625.9    966.0      2.1      0.0      0.0    816.6       47    835.8    835.8      100     0.000     0.000     0.000     0.000       89        0       30        0        0        1        0    19.804       99     48.2    9.541   10.601     0.80    0.000    0.000       31       12     2015  cluster_340.PRM
