AquaCrop 7.1 (August 2023) - Output created on (date) : 16-01-2026   at (time) : 12:17:26

   Run:   1
   Day Month  Year   DAP Stage   WC(2.30)   Rain     Irri   Surf   Infilt   RO    Drain       CR    Zgwt       Ex       E     E/Ex     Trx       Tr  Tr/Trx    ETx      ET  ET/ETx      GD       Z     StExp  StSto  StSen StSalt StWeed   CC      CCw     StTr  Kc(Tr)     Trx       Tr      TrW  Tr/Trx   WP    Biomass     HI    Y(dry)  Y(fresh)  Brelative    WPet      Bin     Bout  WC(2.30) Wr(2.30)     Z       Wr    Wr(SAT)    Wr(FC)   Wr(exp)   Wr(sto)   Wr(sen)   Wr(PWP)    SaltIn    SaltOut   SaltUp   Salt(2.30)  SaltZ     Z       ECe    ECsw   StSalt  Zgwt    ECgw       WC01       WC 2       WC 3       WC 4       WC 5       WC 6       WC 7       WC 8       WC 9       WC10       WC11       WC12      ECe01      ECe 2      ECe 3      ECe 4      ECe 5      ECe 6      ECe 7      ECe 8      ECe 9      ECe10      ECe11      ECe12     Rain       ETo      Tmin      Tavg      Tmax      CO2
                                      mm      mm       mm     mm     mm     mm       mm       mm      m        mm       mm     %        mm       mm    %        mm      mm       %  degC-day     m       %      %      %      %      %      %       %       %       -        mm       mm       mm    %     g/m2    ton/ha      %    ton/ha   ton/ha       %       kg/m3   ton/ha   ton/ha      mm       mm       m       mm        mm        mm        mm        mm        mm         mm    ton/ha    ton/ha    ton/ha    ton/ha    ton/ha     m      dS/m    dS/m      %     m      dS/m       0.05       0.18       0.33       0.48       0.63       0.80       1.00       1.20       1.43       1.68       1.93       2.18       0.05       0.18       0.33       0.48       0.63       0.80       1.00       1.20       1.43       1.68       1.93       2.18       mm        mm     degC      degC      degC       ppm
     1     7  2011     1     1     263.3     4.6      0.0    0.0    4.6    0.0      0.0      0.0   -9.90     16.9      9.9     59      0.0      0.0   100     16.9     9.9      59     16.3    0.30     -9     -9     -9      0     -9     0.0     0.0      0    -9.00      0.0      0.0      0.0   100     0.0     0.000    -9.9    0.000    0.000      -9        0.00    0.000    0.000     263.3    263.3    0.30    29.3     125.1      34.6      30.7      22.1      15.5       6.9    0.000     0.000     0.000     0.000     0.000    0.30     0.00    0.00      0   -9.90   -9.00        6.3       11.7       11.7       11.7       11.7       11.7       11.7       11.7       11.7       11.7       11.7       11.7        0.0        0.0        0.0        0.0        0.0        0.0        0.0        0.0        0.0        0.0        0.0        0.0      4.6      15.3      18.6      26.6      34.5    391.85
     2     7  2011     2     1     259.7     4.0      0.0    0.0    4.0    0.0      0.0      0.0   -9.90     15.6      7.6     49      0.0      0.0   100     15.6     7.6      49     17.1    0.30     -9     -9     -9      0     -9     0.0     0.0      0    -9.00      0.0      0.0      0.0   100     0.0     0.000    -9.9    0.000    0.000      -9        0.00    0.000    0.000     259.7    259.7    0.30    25.7     125.1      34.6      30.7      21.4      15.5       6.9    0.000     0.000     0.000     0.000     0.000    0.30     0.00    0.00      0   -9.90   -9.00        2.6       11.7       11.7       11.7       11.7       11.7       11.7       11.7       11.7       11.7       11.7       11.7        0.0        0.0        0.0        0.0        0.0        0.0        0.0        0.0        0.0        0.0        0.0        0.0      4.0      14.2      20.1      26.8      33.5    391.85
     3     7  2011     3     1     258.5     4.9      0.0    0.0    4.9    0.0      0.0      0.0   -9.90     16.6      6.0     36      0.0      0.0   100     16.6     6.0      36     16.2    0.30     -9     -9     -9      0     -9     0.0     0.0      0    -9.00      0.0      0.0      0.0   100     0.0     0.000    -9.9    0.000    0.000      -9        0.00    0.000    0.000     258.5    258.5    0.30    24.5     125.1      34.6      30.7      22.0      15.5       6.9    0.000     0.000     0.000     0.000     0.000    0.30     0.00    0.00      0   -9.90   -9.00        1.5       11.7       11.7       11.7       11.7       11.7       11.7       11.7       11.7       11.7       11.7       11.7        0.0        0.0        0.0        0.0        0.0        0.0        0.0        0.0        0.0        0.0        0.0        0.0      4.9      15.1      18.3      26.2      34.0    391.85
     4     7  2011     4     1     258.8     6.4      0.0    0.0    6.4    0.0      0.0      0.0   -9.90     15.7      6.1     39      0.0      0.0   100     15.7     6.1      39     16.6    0.30     -9     -9     -9      0     -9     0.0     0.0      0    -9.00      0.0      0.0      0.0   100     0.0     0.000    -9.9    0.000    0.000      -9        0.00    0.000    0.000     258.8    258.8    0.30    24.8     125.1      34.6      30.7      21.4      15.5       6.9    0.000     0.000     0.000     0.000     0.000    0.30     0.00    0.00      0   -9.90   -9.00        1.8       11.7       11.7       11.7       11.7       11.7       11.7       11.7       11.7       11.7       11.7       11.7        0.0        0.0        0.0        0.0        0.0        0.0        0.0        0.0        0.0        0.0        0.0        0.0      6.4      14.2      19.2      26.2      33.2    391.85
     5     7  2011     5     1     259.0     6.2      0.0    0.0    6.2    0.0      0.0      0.0   -9.90     14.5      6.0     41      0.0      0.0   100     14.5     6.0      41     17.4    0.32     -9     -9     -9      0     -9     0.0     0.0      0    -9.00      0.0      0.0      0.0   100     0.0     0.000    -9.9    0.000    0.000      -9        0.00    0.000    0.000     259.0    259.0    0.32    27.4     133.5      36.9      32.8      22.1      16.5       7.4    0.000     0.000     0.000     0.000     0.000    0.32     0.00    0.00      0   -9.90   -9.00        2.0       11.7       11.7       11.7       11.7       11.7       11.7       11.7       11.7       11.7       11.7       11.7        0.0        0.0        0.0        0.0        0.0        0.0        0.0        0.0        0.0        0.0        0.0        0.0      6.2      13.2      20.7      26.6      32.5    391.85
     6     7  2011     6     1     257.7     2.4      0.0    0.0    2.4    0.0      0.0      0.0   -9.90     15.8      3.7     24      0.0      0.0   100     15.8     3.7      24     17.2    0.36     -9     -9     -9      0     -9     0.0     0.0      0    -9.00      0.0      0.0      0.0   100     0.0     0.000    -9.9    0.000    0.000      -9        0.00    0.000    0.000     257.7    257.7    0.36    30.7     150.6      41.6      37.0      25.9      18.7       8.4    0.000     0.000     0.000     0.000     0.000    0.36     0.00    0.00      0   -9.90   -9.00        1.2       11.3       11.7       11.7       11.7       11.7       11.7       11.7       11.7       11.7       11.7       11.7        0.0        0.0        0.0        0.0        0.0        0.0        0.0        0.0        0.0        0.0        0.0        0.0      2.4      14.4      20.3      27.1      33.9    391.85
     7     7  2011     7     2     259.8     2.3      3.2    0.0    2.3    0.0      0.0      0.0   -9.90     15.3      3.4     22      0.1      0.1   100     15.4     3.5      23     17.5    0.40     -9      0      0      0      0     0.4     0.4      0     0.01      0.1      0.1      0.1   100    34.3     0.003    -9.9    0.000    0.000     100        0.00    0.000    0.000     259.8    259.8    0.40    37.2     166.4      46.0      46.0      28.3      28.3       9.3    0.000     0.000     0.000     0.000     0.000    0.40     0.00    0.00      0   -9.90   -9.00        9.4        9.4        9.5       11.7       11.7       11.7       11.7       11.7       11.7       11.7       11.7       11.7        0.0        0.0        0.0        0.0        0.0        0.0        0.0        0.0        0.0        0.0        0.0        0.0      2.3      14.0      21.0      27.4      33.8    391.85
     8     7  2011     8     2     258.9     2.7      4.3    0.0    2.7    0.0      0.0      0.0   -9.90     15.1      7.7     51      0.1      0.1   100     15.2     7.9      52     17.1    0.43     -9      0      0      0      0     0.5     0.5      0     0.01      0.1      0.1      0.1   100    34.3     0.006    -9.9    0.000    0.000     100        0.00    0.000    0.000     258.9    258.9    0.43    41.0     181.2      50.1      50.1      30.7      30.7      10.2    0.000     0.000     0.000     0.000     0.000    0.43     0.00    0.00      0   -9.90   -9.00        9.4        9.4        9.5       11.2       11.7       11.7       11.7       11.7       11.7       11.7       11.7       11.7        0.0        0.0        0.0        0.0        0.0        0.0        0.0        0.0        0.0        0.0        0.0        0.0      2.7      13.8      20.3      26.7      33.1    391.85
     9     7  2011     9     2     258.1     2.4      4.5    0.0    2.4    0.0      0.0      0.0   -9.90     15.7      7.6     49      0.2      0.2   100     15.9     7.8      49     16.8    0.47      0      0      0      0      0     0.6     0.6      0     0.01      0.2      0.2      0.2   100    34.3     0.010    -9.9    0.000    0.000     100        0.00    0.000    0.000     258.1    258.1    0.47    44.5     195.4      54.0      54.0      33.8      33.8      11.0    0.000     0.000     0.000     0.000     0.000    0.47     0.00    0.00      0   -9.90   -9.00        9.5        9.5        9.5       10.5       11.7       11.7       11.7       11.7       11.7       11.7       11.7       11.7        0.0        0.0        0.0        0.0        0.0        0.0        0.0        0.0        0.0        0.0        0.0        0.0      2.4      14.4      19.6      26.6      33.6    391.85
    10     7  2011    10     2     257.1     3.7      4.3    0.0    3.7    0.0      0.0      0.0   -9.90     15.7      8.8     56      0.2      0.2   100     15.9     9.0      56     15.9    0.50      0      0      0      0      0     0.7     0.7      0     0.01      0.2      0.2      0.2   100    34.3     0.014    -9.9    0.000    0.000     100        0.00    0.000    0.000     257.1    257.1    0.50    47.3     209.1      57.8      57.8      36.1      36.1      11.9    0.000     0.000     0.000     0.000     0.000    0.50     0.00    0.00      0   -9.90   -9.00        9.5        9.5        9.5        9.9       11.7       11.7       11.7       11.7       11.7       11.7       11.7       11.7        0.0        0.0        0.0        0.0        0.0        0.0        0.0        0.0        0.0        0.0        0.0        0.0      3.7      14.4      17.8      25.3      32.8    391.85
    11     7  2011    11     2     256.7     1.4      5.3    0.0    1.4    0.0      0.0      0.0   -9.90     15.7      6.8     44      0.2      0.2   100     15.9     7.1      44     16.8    0.53      4      0      0      0      0     0.8     0.8      0     0.01      0.2      0.2      0.2   100    34.3     0.019    -9.9    0.000    0.000     100        0.00    0.000    0.000     256.7    256.7    0.53    50.0     222.3      61.4      61.4      38.4      38.4      12.6    0.000     0.000     0.000     0.000     0.000    0.53     0.00    0.00      0   -9.90   -9.00        9.5        9.5        9.5        9.6       11.7       11.7       11.7       11.7       11.7       11.7       11.7       11.7        0.0        0.0        0.0        0.0        0.0        0.0        0.0        0.0        0.0        0.0        0.0        0.0      1.4      14.5      19.6      26.6      33.6    391.85
    12     7  2011    12     2     256.9     3.9      5.3    0.0    3.9    0.0      0.0      0.0   -9.90     16.4      8.7     53      0.3      0.3   100     16.7     9.0      54     16.5    0.56      0      0      0      0      0     1.0     1.0      0     0.02      0.3      0.3      0.3   100    34.3     0.025    -9.9    0.000    0.000     100        0.00    0.000    0.000     256.9    256.9    0.56    53.4     235.2      65.0      65.0      41.6      41.6      13.4    0.000     0.000     0.000     0.000     0.000    0.56     0.00    0.00      0   -9.90   -9.00        9.6        9.6        9.6        9.6       11.6       11.7       11.7       11.7       11.7       11.7       11.7       11.7        0.0        0.0        0.0        0.0        0.0        0.0        0.0        0.0        0.0        0.0        0.0        0.0      3.9      15.2      18.9      26.7      34.4    391.85
    13     7  2011    13     2     256.4     9.2      0.7    0.0    9.2    0.0      0.0      0.0   -9.90     16.8     10.1     60      0.3      0.3   100     17.1    10.5      61     16.2    0.59      0      0      0      0      0     1.2     1.2      0     0.02      0.3      0.3      0.3   100    34.3     0.032    -9.9    0.000    0.000     100        0.00    0.000    0.000     256.4    256.4    0.59    56.9     247.7      68.4      68.4      44.3      44.3      14.1    0.000     0.000     0.000     0.000     0.000    0.59     0.00    0.00      0   -9.90   -9.00        9.6        9.6        9.7        9.7       11.1       11.7       11.7       11.7       11.7       11.7       11.7       11.7        0.0        0.0        0.0        0.0        0.0        0.0        0.0        0.0        0.0        0.0        0.0        0.0      9.2      15.6      18.5      26.6      34.8    391.85
    14     7  2011    14     2     254.9     1.1      4.3    0.0    1.1    0.0      0.0      0.0   -9.90     15.9      6.5     41      0.4      0.4   100     16.3     6.9      42     16.4    0.62      5      0      0      0      0     1.4     1.4      0     0.02      0.4      0.4      0.4   100    34.3     0.041    -9.9    0.000    0.000      99        0.00    0.000    0.000     254.9    254.9    0.62    59.2     259.9      71.8      71.8      45.5      45.5      14.8    0.000     0.000     0.000     0.000     0.000    0.62     0.00    0.00      0   -9.90   -9.00        9.5        9.5        9.6        9.6       10.4       11.7       11.7       11.7       11.7       11.7       11.7       11.7        0.0        0.0        0.0        0.0        0.0        0.0        0.0        0.0        0.0        0.0        0.0        0.0      1.1      14.8      18.8      26.3      33.8    391.85
    15     7  2011    15     2     254.0     1.6      4.7    0.0    1.6    0.0      0.0      0.0   -9.90     15.6      6.8     43      0.4      0.4   100     16.1     7.2      45     17.3    0.65      2      0      0      0      0     1.6     1.6      0     0.03      0.4      0.4      0.4   100    34.3     0.050    -9.9    0.000    0.000      99        0.00    0.000    0.000     254.0    254.0    0.65    61.5     271.9      75.1      75.1      47.3      47.3      15.6    0.000     0.000     0.000     0.000     0.000    0.65     0.00    0.00      0   -9.90   -9.00        9.5        9.5        9.6        9.6        9.9       11.7       11.7       11.7       11.7       11.7       11.7       11.7        0.0        0.0        0.0        0.0        0.0        0.0        0.0        0.0        0.0        0.0        0.0        0.0      1.6      14.6      20.6      27.5      34.4    391.85
    16     7  2011    16     2     252.7     4.0      3.6    0.0    4.0    0.0      0.0      0.0   -9.90     14.3      8.4     59      0.5      0.5   100     14.7     8.9      60     17.7    0.67      0      0      0      0      0     1.9     1.9      0     0.03      0.5      0.5      0.5   100    34.3     0.062    -9.9    0.000    0.000      99        0.00    0.000    0.000     252.7    252.7    0.67    63.0     283.6      78.3      78.3      47.5      47.5      16.2    0.000     0.000     0.000     0.000     0.000    0.67     0.00    0.00      0   -9.90   -9.00        9.4        9.4        9.4        9.4        9.5       11.7       11.7       11.7       11.7       11.7       11.7       11.7        0.0        0.0        0.0        0.0        0.0        0.0        0.0        0.0        0.0        0.0        0.0        0.0      4.0      13.4      21.3      27.2      33.1    391.85
    17     7  2011    17     2     254.3     1.7      7.6    0.0    1.7    0.0      0.0      0.0   -9.90     16.6      7.1     43      0.6      0.6   100     17.2     7.7      45     16.7    0.70      3      0      0      0      0     2.2     2.2      0     0.04      0.6      0.6      0.6   100    34.3     0.075    -9.9    0.000    0.000      99        0.00    0.000    0.000     254.3    254.3    0.70    67.2     295.2      81.5      81.5      52.9      52.9      16.9    0.000     0.000     0.000     0.000     0.000    0.70     0.00    0.00      0   -9.90   -9.00        9.6        9.6        9.7        9.7        9.7       11.7       11.7       11.7       11.7       11.7       11.7       11.7        0.0        0.0        0.0        0.0        0.0        0.0        0.0        0.0        0.0        0.0        0.0        0.0      1.7      15.6      19.4      27.3      35.3    391.85
    18     7  2011    18     2     252.8     1.4      4.5    0.0    1.4    0.0      0.0      0.0   -9.90     15.3      6.7     44      0.7      0.7   100     15.9     7.3      46     17.1    0.73      3      0      0      0      0     2.6     2.6      0     0.05      0.7      0.7      0.7   100    34.3     0.091    -9.9    0.000    0.000      99        0.00    0.000    0.000     252.8    252.8    0.73    69.4     306.5      84.6      84.6      53.2      53.2      17.6    0.000     0.000     0.000     0.000     0.000    0.73     0.00    0.00      0   -9.90   -9.00        9.5        9.5        9.5        9.5        9.5       11.4       11.7       11.7       11.7       11.7       11.7       11.7        0.0        0.0        0.0        0.0        0.0        0.0        0.0        0.0        0.0        0.0        0.0        0.0      1.4      14.5      20.3      27.2      34.1    391.85
    19     7  2011    19     2     252.0     3.8      4.6    0.0    3.8    0.0      0.0      0.0   -9.90     15.3      8.4     55      0.8      0.8   100     16.1     9.2      57     17.0    0.75      0      0      0      0      0     3.1     3.1      0     0.05      0.8      0.8      0.8   100    34.3     0.110    -9.9    0.000    0.000      98        0.00    0.000    0.000     252.0    252.0    0.75    72.3     317.7      87.7      87.7      55.4      55.4      18.3    0.000     0.000     0.000     0.000     0.000    0.75     0.00    0.00      0   -9.90   -9.00        9.5        9.5        9.6        9.6        9.6       10.9       11.7       11.7       11.7       11.7       11.7       11.7        0.0        0.0        0.0        0.0        0.0        0.0        0.0        0.0        0.0        0.0        0.0        0.0      3.8      14.7      19.9      27.0      34.2    391.85
    20     7  2011    20     2     251.0     6.7      2.5    0.0    6.7    0.0      0.0      0.0   -9.90     15.3      9.3     61      0.9      0.9   100     16.2    10.2      63     16.0    0.78      0      0      0      0      0     3.6     3.6      0     0.06      0.9      0.9      0.9   100    34.3     0.132    -9.9    0.000    0.000      98        0.00    0.000    0.000     251.0    251.0    0.78    74.8     328.7      90.8      90.8      57.5      57.5      18.9    0.000     0.000     0.000     0.000     0.000    0.78     0.00    0.00      0   -9.90   -9.00        9.5        9.5        9.6        9.6        9.6       10.4       11.7       11.7       11.7       11.7       11.7       11.7        0.0        0.0        0.0        0.0        0.0        0.0        0.0        0.0        0.0        0.0        0.0        0.0      6.7      14.8      18.1      25.7      33.3    391.85
    21     7  2011    21     2     250.5     9.4      0.9    0.0    9.4    0.0      0.0      0.0   -9.90     15.6      9.6     62      1.1      1.1   100     16.7    10.7      64     16.3    0.81      0      0      0      0      0     4.3     4.3      0     0.07      1.1      1.1      1.1   100    34.3     0.157    -9.9    0.000    0.000      98        0.00    0.000    0.000     250.5    250.5    0.81    77.4     339.6      93.8      93.8      60.2      60.2      19.5    0.000     0.000     0.000     0.000     0.000    0.81     0.00    0.00      0   -9.90   -9.00        9.6        9.6        9.6        9.6        9.6       10.0       11.7       11.7       11.7       11.7       11.7       11.7        0.0        0.0        0.0        0.0        0.0        0.0        0.0        0.0        0.0        0.0        0.0        0.0      9.4      15.3      18.6      26.4      34.3    391.85
    22     7  2011    22     2     250.2     3.0      6.0    0.0    3.0    0.0      0.0      0.0   -9.90     15.6      8.0     51      1.4      1.4   100     16.9     9.3      55     17.3    0.83      0      0      0      0      0     5.0     5.0      0     0.09      1.4      1.4      1.4   100    34.3     0.188    -9.9    0.000    0.000      98        0.00    0.000    0.000     250.2    250.2    0.83    79.7     350.3      96.7      96.7      62.4      62.4      20.2    0.000     0.000     0.000     0.000     0.000    0.83     0.00    0.00      0   -9.90   -9.00        9.6        9.6        9.6        9.6        9.6        9.8       11.7       11.7       11.7       11.7       11.7       11.7        0.0        0.0        0.0        0.0        0.0        0.0        0.0        0.0        0.0        0.0        0.0        0.0      3.0      15.4      20.6      28.1      35.6    391.85
    23     7  2011    23     2     248.1     7.0      0.9    0.0    7.0    0.0      0.0      0.0   -9.90     13.2      8.7     66      1.4      1.4   100     14.5    10.1      69     17.4    0.86      0      0      0      0      0     6.0     6.0      0     0.10      1.4      1.4      1.4   100    34.3     0.223    -9.9    0.000    0.000      98        0.00    0.000    0.000     248.1    248.1    0.86    80.1     360.9      99.7      99.7      60.3      60.3      20.8    0.000     0.000     0.000     0.000     0.000    0.86     0.00    0.00      0   -9.90   -9.00        9.4        9.4        9.4        9.4        9.4        9.5       11.7       11.7       11.7       11.7       11.7       11.7        0.0        0.0        0.0        0.0        0.0        0.0        0.0        0.0        0.0        0.0        0.0        0.0      7.0      13.3      20.7      26.6      32.5    391.85
    24     7  2011    24     2     247.5     6.8      2.5    0.0    6.8    0.0      0.0      0.0   -9.90     12.4      8.3     67      1.5      1.5   100     14.0     9.9      71     17.3    0.88      0      0      0      0      0     7.0     7.0      0     0.12      1.5      1.5      1.5   100    34.3     0.264    -9.9    0.000    0.000      98        0.00    0.000    0.000     247.5    247.5    0.88    81.9     371.4     102.5     102.5      61.2      61.2      21.4    0.000     0.000     0.000     0.000     0.000    0.88     0.00    0.00      0   -9.90   -9.00        9.3        9.3        9.4        9.4        9.4        9.4       11.7       11.7       11.7       11.7       11.7       11.7        0.0        0.0        0.0        0.0        0.0        0.0        0.0        0.0        0.0        0.0        0.0        0.0      6.8      12.8      20.5      26.1      31.7    391.85
    25     7  2011    25     2     248.8     2.5      8.1    0.0    2.5    0.0      0.0      0.0   -9.90     13.6      7.1     52      2.0      2.0   100     15.7     9.1      58     16.9    0.91      0      0      0      0      0     8.3     8.3      0     0.14      2.0      2.0      2.0   100    34.3     0.313    -9.9    0.000    0.000      98        0.00    0.000    0.000     248.8    248.8    0.91    85.8     381.7     105.4     105.4      65.9      65.9      22.0    0.000     0.000     0.000     0.000     0.000    0.91     0.00    0.00      0   -9.90   -9.00        9.5        9.5        9.5        9.5        9.5        9.5       11.6       11.7       11.7       11.7       11.7       11.7        0.0        0.0        0.0        0.0        0.0        0.0        0.0        0.0        0.0        0.0        0.0        0.0      2.5      14.3      19.7      26.6      33.5    391.85
    26     7  2011    26     2     248.1     4.7      5.2    0.0    4.7    0.0      0.0      0.0   -9.90     13.2      8.3     63      2.4      2.4   100     15.5    10.7      69     17.3    0.93      0      0      0      0      0     9.8     9.8      0     0.17      2.4      2.4      2.4   100    34.3     0.370    -9.9    0.000    0.000      98        0.00    0.000    0.000     248.1    248.1    0.93    88.4     392.0     108.2     108.2      67.4      67.4      22.6    0.000     0.000     0.000     0.000     0.000    0.93     0.00    0.00      0   -9.90   -9.00        9.5        9.5        9.5        9.5        9.5        9.5       11.3       11.7       11.7       11.7       11.7       11.7        0.0        0.0        0.0        0.0        0.0        0.0        0.0        0.0        0.0        0.0        0.0        0.0      4.7      14.2      20.6      27.2      33.8    391.85
    27     7  2011    27     2     248.0     7.7      4.0    0.0    7.7    0.0      0.0      0.0   -9.90     13.5      8.9     66      2.9      2.9   100     16.4    11.8      72     17.5    0.95      0      0      0      0      0    11.5    11.5      0     0.19      2.9      2.9      2.9   100    34.3     0.436    -9.9    0.000    0.000      98        0.00    0.000    0.000     248.0    248.0    0.95    91.6     402.2     111.0     111.0      70.9      70.9      23.2    0.000     0.000     0.000     0.000     0.000    0.95     0.00    0.00      0   -9.90   -9.00        9.6        9.6        9.6        9.6        9.6        9.6       10.9       11.7       11.7       11.7       11.7       11.7        0.0        0.0        0.0        0.0        0.0        0.0        0.0        0.0        0.0        0.0        0.0        0.0      7.7      15.1      21.1      28.1      35.2    391.85
    28     7  2011    28     2     246.1     5.2      4.4    0.0    5.2    0.0      0.0      0.0   -9.90     12.2      8.2     67      3.2      3.2   100     15.4    11.4      74     16.7    0.98      0      0      0      0      0    13.6    13.6      0     0.23      3.2      3.2      3.2   100    34.3     0.513    -9.9    0.000    0.000      98        0.00    0.000    0.000     246.1    246.1    0.98    93.0     412.2     113.8     113.8      70.8      70.8      23.8    0.000     0.000     0.000     0.000     0.000    0.98     0.00    0.00      0   -9.90   -9.00        9.5        9.5        9.5        9.5        9.5        9.5       10.3       11.7       11.7       11.7       11.7       11.7        0.0        0.0        0.0        0.0        0.0        0.0        0.0        0.0        0.0        0.0        0.0        0.0      5.2      14.2      19.3      26.2      33.0    391.85
    29     7  2011    29     2     246.2     4.1      8.0    0.0    4.1    0.0      0.0      0.0   -9.90     12.4      8.0     64      4.0      4.0   100     16.4    11.9      73     16.4    1.00      0      0      0      0      0    16.0    16.0      0     0.26      4.0      4.0      4.0   100    34.3     0.603    -9.9    0.000    0.000      98        0.00    0.000    0.000     246.2    246.2    1.00    95.9     422.2     116.6     116.6      74.5      74.5      24.4    0.000     0.000     0.000     0.000     0.000    1.00     0.00    0.00      0   -9.90   -9.00        9.6        9.6        9.6        9.6        9.6        9.6       10.0       11.7       11.7       11.7       11.7       11.7        0.0        0.0        0.0        0.0        0.0        0.0        0.0        0.0        0.0        0.0        0.0        0.0      4.1      15.1      18.8      26.5      34.1    391.85
    30     7  2011    30     2     243.5     6.5      2.4    0.0    6.5    0.0      0.0      0.0   -9.90     10.2      7.6     75      4.0      4.0   100     14.1    11.6      82     16.9    1.02      0      0      0      0      0    18.9    18.9      0     0.30      4.0      4.0      4.0   100    34.3     0.707    -9.9    0.000    0.000      98        0.00    0.000    0.000     243.5    243.5    1.02    95.8     432.0     119.3     119.3      71.8      71.8      25.0    0.000     0.000     0.000     0.000     0.000    1.02     0.00    0.00      0   -9.90   -9.00        9.3        9.3        9.4        9.4        9.4        9.4        9.6       11.7       11.7       11.7       11.7       11.7        0.0        0.0        0.0        0.0        0.0        0.0        0.0        0.0        0.0        0.0        0.0        0.0      6.5      13.1      19.8      25.7      31.6    391.85
    31     7  2011    31     2     245.8     0.8     12.1    0.0    0.8    0.0      0.0      0.0   -9.90     11.3      5.3     47      5.3      5.3   100     16.6    10.6      64     17.3    1.05     10      0      0      0      0    21.9    21.9      0     0.35      5.3      5.3      5.3   100    34.3     0.826    -9.9    0.000    0.000      97        0.00    0.000    0.000     245.8    245.8    1.05   100.3     441.8     122.0     122.0      78.6      78.6      25.6    0.000     0.000     0.000     0.000     0.000    1.05     0.00    0.00      0   -9.90   -9.00        9.6        9.6        9.6        9.6        9.6        9.6        9.6       11.7       11.7       11.7       11.7       11.7        0.0        0.0        0.0        0.0        0.0        0.0        0.0        0.0        0.0        0.0        0.0        0.0      0.8      15.4      20.7      28.1      35.5    391.85
     1     8  2011    32     2     245.8    11.8      2.5    0.0   11.7    0.1      0.0      0.0   -9.90     10.4      8.1     77      6.1      6.1   100     16.6    14.2      86     16.4    1.07      0      0      0      0      0    25.9    25.9      0     0.40      6.1      6.1      6.1   100    34.3     0.963    -9.9    0.000    0.000      97        0.00    0.000    0.000     245.8    245.8    1.07   102.5     451.5     124.7     124.7      80.3      80.3      26.1    0.000     0.000     0.000     0.000     0.000    1.07     0.00    0.00      0   -9.90   -9.00        9.6        9.6        9.6        9.6        9.6        9.6        9.6       11.7       11.7       11.7       11.7       11.7        0.0        0.0        0.0        0.0        0.0        0.0        0.0        0.0        0.0        0.0        0.0        0.0     11.8      15.4      18.8      26.7      34.5    391.85
     2     8  2011    33     2     245.0     2.8      9.4    0.0    2.8    0.0      0.0      0.0   -9.90      9.1      6.2     68      6.7      6.7   100     15.8    12.9      82     17.1    1.09      0      0      0      0      0    30.5    30.5      0     0.46      6.7      6.7      6.7   100    34.3     1.121    -9.9    0.000    0.000      97        0.00    0.000    0.000     245.0    245.0    1.09   103.9     461.2     127.3     127.3      80.5      80.5      26.7    0.000     0.000     0.000     0.000     0.000    1.09     0.00    0.00      0   -9.90   -9.00        9.5        9.5        9.6        9.6        9.6        9.6        9.6       11.7       11.7       11.7       11.7       11.7        0.0        0.0        0.0        0.0        0.0        0.0        0.0        0.0        0.0        0.0        0.0        0.0      2.8      14.7      20.2      27.2      34.3    391.85
     3     8  2011    34     2     245.7     4.9     11.0    0.0    4.9    0.0      0.0      0.0   -9.90      8.5      7.0     82      8.2      8.2   100     16.7    15.1      91     17.1    1.12      0      0      0      0      0    36.0    36.0      0     0.53      8.2      8.2      8.2   100    34.3     1.301    -9.9    0.000    0.000      97        0.00    0.000    0.000     245.7    245.7    1.12   107.4     470.7     130.0     130.0      84.3      84.3      27.3    0.000     0.000     0.000     0.000     0.000    1.12     0.00    0.00      0   -9.90   -9.00        9.6        9.6        9.7        9.7        9.7        9.7        9.7       11.5       11.7       11.7       11.7       11.7        0.0        0.0        0.0        0.0        0.0        0.0        0.0        0.0        0.0        0.0        0.0        0.0      4.9      15.6      20.3      27.9      35.6    391.85
     4     8  2011    35     2     244.6     9.6      4.9    0.0    9.6    0.0      0.0      0.0   -9.90      7.2      6.5     90      9.1      9.1   100     16.3    15.6      96     17.0    1.14      0      0      0      0      0    42.4    42.4      0     0.60      9.1      9.1      9.1   100    34.3     1.506    -9.9    0.000    0.000      97        0.00    0.000    0.000     244.6    244.6    1.14   109.5     480.2     132.6     132.6      85.2      85.2      27.8    0.000     0.000     0.000     0.000     0.000    1.14     0.00    0.00      0   -9.90   -9.00        9.6        9.6        9.6        9.6        9.6        9.6        9.6       11.2       11.7       11.7       11.7       11.7        0.0        0.0        0.0        0.0        0.0        0.0        0.0        0.0        0.0        0.0        0.0        0.0      9.6      15.3      19.9      27.4      34.9    391.85
     5     8  2011    36     2     243.0     6.6      7.1    0.0    6.6    0.0      0.0      0.0   -9.90      5.7      5.4     95      9.9      9.9   100     15.6    15.4      98     16.9    1.16      0      0      0      0      0    49.9    49.9      0     0.67      9.9      9.9      9.9   100    34.3     1.737    -9.9    0.000    0.000      97        0.00    0.000    0.000     243.0    243.0    1.16   111.0     489.6     135.2     135.2      85.5      85.5      28.4    0.000     0.000     0.000     0.000     0.000    1.16     0.00    0.00      0   -9.90   -9.00        9.5        9.5        9.6        9.6        9.6        9.6        9.6       10.7       11.7       11.7       11.7       11.7        0.0        0.0        0.0        0.0        0.0        0.0        0.0        0.0        0.0        0.0        0.0        0.0      6.6      14.7      19.8      26.9      34.1    391.85
     6     8  2011    37     2     242.1     3.3     11.1    0.0    3.3    0.0      0.0      0.0   -9.90      4.7      4.4     94     10.9     10.9   100     15.6    15.3      98     16.6    1.18      0      0      0      0      0    56.8    56.8      0     0.74     10.9     10.9     10.9   100    34.3     1.991    -9.9    0.000    0.000      97        0.00    0.000    0.000     242.1    242.1    1.18   113.0     499.0     137.8     137.8      87.1      87.1      28.9    0.000     0.000     0.000     0.000     0.000    1.18     0.00    0.00      0   -9.90   -9.00        9.5        9.5        9.6        9.6        9.6        9.6        9.6       10.2       11.7       11.7       11.7       11.7        0.0        0.0        0.0        0.0        0.0        0.0        0.0        0.0        0.0        0.0        0.0        0.0      3.3      14.7      19.1      26.4      33.7    391.85
     7     8  2011    38     2     240.6     4.4      9.1    0.0    4.4    0.0      0.0      0.0   -9.90      3.7      3.7    100     11.2     11.2   100     14.9    14.9     100     18.1    1.20      0      0      0      0      0    62.7    62.7      0     0.79     11.2     11.2     11.2   100    34.3     2.263    -9.9    0.000    0.000      97        0.00    0.000    0.000     240.6    240.6    1.20   114.2     508.3     140.3     140.3      87.2      87.2      29.5    0.000     0.000     0.000     0.000     0.000    1.20     0.00    0.00      0   -9.90   -9.00        9.4        9.4        9.5        9.5        9.5        9.5        9.5        9.9       11.7       11.7       11.7       11.7        0.0        0.0        0.0        0.0        0.0        0.0        0.0        0.0        0.0        0.0        0.0        0.0      4.4      14.1      22.2      28.4      34.5    391.85
     8     8  2011    39     2     239.9     5.7      8.1    0.0    5.7    0.0      0.0      0.0   -9.90      3.1      3.1    100     11.5     11.5   100     14.6    14.6     100     16.6    1.23      0      0      0      0      0    67.6    67.6      0     0.83     11.5     11.5     11.5   100    34.3     2.548    -9.9    0.000    0.000      97        0.00    0.000    0.000     239.9    239.9    1.23   115.7     517.5     142.9     142.9      88.2      88.2      30.0    0.000     0.000     0.000     0.000     0.000    1.23     0.00    0.00      0   -9.90   -9.00        9.4        9.4        9.5        9.5        9.5        9.5        9.5        9.6       11.7       11.7       11.7       11.7        0.0        0.0        0.0        0.0        0.0        0.0        0.0        0.0        0.0        0.0        0.0        0.0      5.7      13.9      19.3      25.9      32.5    391.85
     9     8  2011    40     2     242.1     0.4     17.8    0.0    0.4    0.0      0.0      0.0   -9.90      3.0      2.4     78     13.6     13.6   100     16.6    15.9      96     16.2    1.25     13      0      0      0      0    71.2    71.2      0     0.86     13.6     13.6     13.6   100    34.3     2.844    -9.9    0.000    0.000      98        0.00    0.000    0.000     242.1    242.1    1.25   120.0     526.7     145.4     145.4      94.7      94.7      30.6    0.000     0.000     0.000     0.000     0.000    1.25     0.00    0.00      0   -9.90   -9.00        9.6        9.6        9.7        9.7        9.7        9.7        9.7        9.7       11.7       11.7       11.7       11.7        0.0        0.0        0.0        0.0        0.0        0.0        0.0        0.0        0.0        0.0        0.0        0.0      0.4      15.7      18.4      26.7      34.9    391.85
    10     8  2011    41     2     240.3     7.1      6.2    0.0    7.1    0.0      0.0      0.0   -9.90      2.3      2.3    100     12.8     12.8   100     15.1    15.1     100     17.1    1.27      0      0      0      0      0    74.9    74.9      0     0.89     12.8     12.8     12.8   100    34.3     3.149    -9.9    0.000    0.000      98        0.00    0.000    0.000     240.3    240.3    1.27   120.3     535.8     147.9     147.9      92.6      92.6      31.1    0.000     0.000     0.000     0.000     0.000    1.27     0.00    0.00      0   -9.90   -9.00        9.5        9.5        9.5        9.5        9.5        9.5        9.5        9.5       11.7       11.7       11.7       11.7        0.0        0.0        0.0        0.0        0.0        0.0        0.0        0.0        0.0        0.0        0.0        0.0      7.1      14.4      20.1      26.9      33.7    391.85
    11     8  2011    42     2     241.6     4.9     12.6    0.0    4.9    0.0      0.0      0.0   -9.90      2.1      2.1    100     14.0     14.0   100     16.1    16.1     100     16.9    1.29      0      0      0      0      0    78.0    78.0      0     0.91     14.0     14.0     14.0   100    34.3     3.463    -9.9    0.000    0.000      98        0.00    0.000    0.000     241.6    241.6    1.29   123.6     544.9     150.4     150.4      96.9      96.9      31.6    0.000     0.000     0.000     0.000     0.000    1.29     0.00    0.00      0   -9.90   -9.00        9.6        9.6        9.6        9.6        9.6        9.6        9.6        9.6       11.7       11.7       11.7       11.7        0.0        0.0        0.0        0.0        0.0        0.0        0.0        0.0        0.0        0.0        0.0        0.0      4.9      15.3      19.8      27.4      35.0    391.85
    12     8  2011    43     2     241.2    11.8      3.9    0.0   11.7    0.1      0.0      0.0   -9.90      1.8      1.8    100     14.2     14.2   100     16.0    16.0     100     16.3    1.31      0      0      0      0      0    80.6    80.6      0     0.93     14.2     14.2     14.2   100    34.3     3.782    -9.9    0.000    0.000      98        0.00    0.000    0.000     241.2    241.2    1.31   125.8     553.9     152.9     152.9      98.2      98.2      32.2    0.000     0.000     0.000     0.000     0.000    1.31     0.00    0.00      0   -9.90   -9.00        9.6        9.6        9.6        9.6        9.6        9.6        9.6        9.6       11.6       11.7       11.7       11.7        0.0        0.0        0.0        0.0        0.0        0.0        0.0        0.0        0.0        0.0        0.0        0.0     11.8      15.2      18.7      26.5      34.3    391.85
    13     8  2011    44     2     240.2     4.3     10.4    0.0    4.3    0.0      0.0      0.0   -9.90      1.5      1.5    100     14.2     14.2   100     15.7    15.7     100     16.8    1.33      0      0      0      0      0    82.8    82.8      0     0.95     14.2     14.2     14.2   100    34.3     4.108    -9.9    0.000    0.000      98        0.00    0.000    0.000     240.2    240.2    1.33   127.8     562.8     155.4     155.4      99.0      99.0      32.7    0.000     0.000     0.000     0.000     0.000    1.33     0.00    0.00      0   -9.90   -9.00        9.5        9.5        9.6        9.6        9.6        9.6        9.6        9.6       11.3       11.7       11.7       11.7        0.0        0.0        0.0        0.0        0.0        0.0        0.0        0.0        0.0        0.0        0.0        0.0      4.3      14.9      19.5      26.9      34.3    391.85
    14     8  2011    45     2     238.8     3.5     10.5    0.0    3.5    0.0      0.0      0.0   -9.90      1.3      1.3    100     14.1     14.1   100     15.4    15.4     100     16.9    1.35      0      0      0      0      0    84.7    84.7      0     0.96     14.1     14.1     14.1   100    34.3     4.437    -9.9    0.000    0.000      98        0.00    0.000    0.000     238.8    238.8    1.35   129.5     571.7     157.8     157.8      99.7      99.7      33.2    0.000     0.000     0.000     0.000     0.000    1.35     0.00    0.00      0   -9.90   -9.00        9.5        9.5        9.6        9.6        9.6        9.6        9.6        9.6       11.0       11.7       11.7       11.7        0.0        0.0        0.0        0.0        0.0        0.0        0.0        0.0        0.0        0.0        0.0        0.0      3.5      14.7      19.8      26.9      34.0    391.85
    15     8  2011    46     2     237.6    10.5      3.5    0.0   10.5    0.0      0.0      0.0   -9.90      1.1      1.1    100     14.1     14.1   100     15.2    15.2     100     17.6    1.37      0      0      0      0      0    86.3    86.3      0     0.97     14.1     14.1     14.1   100    34.3     4.771    -9.9    0.000    0.000      98        0.00    0.000    0.000     237.6    237.6    1.37   131.3     580.6     160.3     160.3     100.9     100.9      33.8    0.000     0.000     0.000     0.000     0.000    1.37     0.00    0.00      0   -9.90   -9.00        9.5        9.5        9.5        9.5        9.5        9.5        9.5        9.5       10.5       11.7       11.7       11.7        0.0        0.0        0.0        0.0        0.0        0.0        0.0        0.0        0.0        0.0        0.0        0.0     10.5      14.5      21.1      27.8      34.5    391.85
    16     8  2011    47     2     236.7     5.0      9.4    0.0    5.0    0.0      0.0      0.0   -9.90      0.9      0.9    100     14.3     14.3   100     15.3    15.3     100     16.9    1.40      0      0      0      0      0    87.6    87.6      0     0.98     14.3     14.3     14.3   100    34.3     5.108    -9.9    0.000    0.000      98        0.00    0.000    0.000     236.7    236.7    1.40   133.2     589.4     162.7     162.7     102.6     102.6      34.3    0.000     0.000     0.000     0.000     0.000    1.40     0.00    0.00      0   -9.90   -9.00        9.5        9.5        9.5        9.5        9.5        9.5        9.5        9.5       10.2       11.7       11.7       11.7        0.0        0.0        0.0        0.0        0.0        0.0        0.0        0.0        0.0        0.0        0.0        0.0      5.0      14.6      19.7      26.8      33.9    391.85
    17     8  2011    48     2     235.1     5.1      7.8    0.0    5.1    0.0      0.0      0.0   -9.90      0.8      0.8    100     13.8     13.8   100     14.6    14.6     100     16.9    1.42      0      0      0      0      0    88.8    88.8      0     0.99     13.8     13.8     13.8   100    34.3     5.448    -9.9    0.000    0.000      98        0.00    0.000    0.000     235.1    235.1    1.42   134.1     598.2     165.1     165.1     102.2     102.2      34.8    0.000     0.000     0.000     0.000     0.000    1.42     0.00    0.00      0   -9.90   -9.00        9.4        9.4        9.5        9.5        9.5        9.5        9.5        9.5        9.8       11.7       11.7       11.7        0.0        0.0        0.0        0.0        0.0        0.0        0.0        0.0        0.0        0.0        0.0        0.0      5.1      13.9      19.8      26.4      33.0    391.85
    18     8  2011    49     2     236.7     7.5     10.1    0.0    7.5    0.0      0.0      0.0   -9.90      0.8      0.8    100     15.3     15.3   100     16.0    16.0     100     16.2    1.44      0      0      0      0      0    89.8    89.8      0     1.00     15.3     15.3     15.3   100    34.3     5.789    -9.9    0.000    0.000      98        0.00    0.000    0.000     236.7    236.7    1.44   137.8     606.9     167.5     167.5     107.9     107.9      35.3    0.000     0.000     0.000     0.000     0.000    1.44     0.00    0.00      0   -9.90   -9.00        9.6        9.6        9.6        9.6        9.6        9.6        9.6        9.6        9.7       11.7       11.7       11.7        0.0        0.0        0.0        0.0        0.0        0.0        0.0        0.0        0.0        0.0        0.0        0.0      7.5      15.3      18.5      26.4      34.4    391.85
    19     8  2011    50     2     238.1    15.9      0.0    0.0   15.6    0.3      0.0      0.0   -9.90      0.6      0.6    100     13.6     13.6   100     14.2    14.2     100     17.1    1.46      0      0      0      0      0    90.6    90.6      0     1.00     13.6     13.6     13.6   100    34.3     6.133    -9.9    0.000    0.000      98        0.00    0.000    0.000     238.1    238.1    1.46   141.2     615.5     169.9     169.9     103.9     103.9      35.8    0.000     0.000     0.000     0.000     0.000    1.46     0.00    0.00      0   -9.90   -9.00       22.0        6.7        6.8        8.0        9.6        9.6        9.6        9.6        9.7       11.7       11.7       11.7        0.0        0.0        0.0        0.0        0.0        0.0        0.0        0.0        0.0        0.0        0.0        0.0     15.9      13.6      20.2      26.5      32.7    391.85
    20     8  2011    51     2     236.9     4.3     10.9    0.0    4.3    0.0      0.0      0.0   -9.90      0.6      0.6    100     15.7     15.7   100     16.3    16.3     100     17.5    1.48      0      0      0      0      0    91.3    91.3      0     1.01     15.7     15.7     15.7   100    34.3     6.478    -9.9    0.000    0.000      98        0.00    0.000    0.000     236.9    236.9    1.48   142.1     624.2     172.3     172.3     111.8     111.8      36.3    0.000     0.000     0.000     0.000     0.000    1.48     0.00    0.00      0   -9.90   -9.00        9.6        9.6        9.7        9.7        9.7        9.7        9.7        9.7        9.7       11.7       11.7       11.7        0.0        0.0        0.0        0.0        0.0        0.0        0.0        0.0        0.0        0.0        0.0        0.0      4.3      15.6      21.0      28.5      36.1    391.85
    21     8  2011    52     2     235.8    11.7      2.9    0.0   11.6    0.1      0.0      0.0   -9.90      0.5      0.5    100     15.1     15.1   100     15.6    15.6     100     16.6    1.50      0      0      0      0      0    91.9    91.9      0     1.01     15.1     15.1     15.1   100    34.3     6.825    -9.9    0.000    0.000      98        0.00    0.000    0.000     235.8    235.8    1.50   143.0     632.8     174.7     174.7     111.2     111.2      36.8    0.000     0.000     0.000     0.000     0.000    1.50     0.00    0.00      0   -9.90   -9.00        9.5        9.5        9.6        9.6        9.6        9.6        9.6        9.6        9.6       11.7       11.7       11.7        0.0        0.0        0.0        0.0        0.0        0.0        0.0        0.0        0.0        0.0        0.0        0.0     11.7      14.9      19.3      26.8      34.2    391.85
    22     8  2011    53     2     237.3     0.5     17.5    0.0    0.5    0.0      0.0      0.0   -9.90      0.5      0.5    100     16.1     16.1   100     16.6    16.6     100     16.4    1.52     11      0      0      0      0    92.3    92.3      0     1.01     16.1     16.1     16.1   100    34.3     7.173    -9.9    0.000    0.000      98        0.00    0.000    0.000     237.3    237.3    1.52   146.4     641.3     177.0     177.0     115.7     115.7      37.3    0.000     0.000     0.000     0.000     0.000    1.52     0.00    0.00      0   -9.90   -9.00        9.6        9.6        9.7        9.7        9.7        9.7        9.7        9.7        9.7       11.7       11.7       11.7        0.0        0.0        0.0        0.0        0.0        0.0        0.0        0.0        0.0        0.0        0.0        0.0      0.5      15.8      18.8      27.1      35.4    391.85
    23     8  2011    54     2     236.5     1.2     14.1    0.0    1.2    0.0      0.0      0.0   -9.90      0.4      0.4    100     15.6     15.6   100     16.1    16.1     100     16.4    1.54      4      0      0      0      0    92.7    92.7      0     1.02     15.6     15.6     15.6   100    34.3     7.521    -9.9    0.000    0.000      99        0.00    0.000    0.000     236.5    236.5    1.54   147.6     649.8     179.4     179.4     115.7     115.7      37.8    0.000     0.000     0.000     0.000     0.000    1.54     0.00    0.00      0   -9.90   -9.00        9.6        9.6        9.6        9.6        9.6        9.6        9.6        9.6        9.6       11.7       11.7       11.7        0.0        0.0        0.0        0.0        0.0        0.0        0.0        0.0        0.0        0.0        0.0        0.0      1.2      15.4      18.9      26.8      34.7    391.85
    24     8  2011    55     2     235.5     2.0     12.6    0.0    2.0    0.0      0.0      0.0   -9.90      0.4      0.4    100     15.2     15.2   100     15.6    15.6     100     16.2    1.56      0      0      0      0      0    93.0    93.0      0     1.02     15.2     15.2     15.2   100    34.3     7.870    -9.9    0.000    0.000      99        0.00    0.000    0.000     235.5    235.5    1.56   148.8     658.3     181.7     181.7     115.6     115.6      38.3    0.000     0.000     0.000     0.000     0.000    1.56     0.00    0.00      0   -9.90   -9.00        9.5        9.5        9.6        9.6        9.6        9.6        9.6        9.6        9.6       11.6       11.7       11.7        0.0        0.0        0.0        0.0        0.0        0.0        0.0        0.0        0.0        0.0        0.0        0.0      2.0      14.9      18.4      26.1      33.8    391.85
    25     8  2011    56     3     234.6     6.6      7.8    0.0    6.6    0.0      0.0      0.0   -9.90      0.4      0.4    100     15.0     15.0   100     15.3    15.3     100     17.3    1.58      0      0      0      0      0    93.3    93.3      0     1.02     15.0     15.0     15.0   100    34.3     8.220    -9.9    0.000    0.000      99        0.00    0.000    0.000     234.6    234.6    1.58   150.7     666.7     184.0     184.0     116.4     116.4      38.8    0.000     0.000     0.000     0.000     0.000    1.58     0.00    0.00      0   -9.90   -9.00        9.5        9.5        9.6        9.6        9.6        9.6        9.6        9.6        9.6       11.4       11.7       11.7        0.0        0.0        0.0        0.0        0.0        0.0        0.0        0.0        0.0        0.0        0.0        0.0      6.6      14.7      20.5      27.5      34.5    391.85
    26     8  2011    57     3     232.8    11.1      1.9    0.0   11.0    0.0      0.0      0.0   -9.90      0.3      0.3    100     14.5     14.5   100     14.8    14.8     100     17.2    1.60      0      0      0      0      0    93.5    93.5      0     1.02     14.5     14.5     14.5   100    34.3     8.571    -9.9    0.000    0.000      99        0.00    0.000    0.000     232.8    232.8    1.60   151.9     675.1     186.4     186.4     116.0     116.0      39.3    0.000     0.000     0.000     0.000     0.000    1.60     0.00    0.00      0   -9.90   -9.00        9.5        9.5        9.5        9.5        9.5        9.5        9.5        9.5        9.5       11.0       11.7       11.7        0.0        0.0        0.0        0.0        0.0        0.0        0.0        0.0        0.0        0.0        0.0        0.0     11.1      14.1      20.4      27.1      33.7    391.85
    27     8  2011    58     3     232.0     1.7     12.3    0.0    1.7    0.0      0.0      0.0   -9.90      0.3      0.3    100     14.6     14.6   100     14.9    14.9     100     17.0    1.62      2      0      0      0      0    93.7    93.7      0     1.02     14.6     14.6     14.6   100    34.3     8.922     1.5    0.135    0.150      99        0.02    0.000    0.000     232.0    232.0    1.62   154.0     683.5     188.7     188.7     117.8     117.8      39.8    0.000     0.000     0.000     0.000     0.000    1.62     0.00    0.00      0   -9.90   -9.00        9.5        9.5        9.5        9.5        9.5        9.5        9.5        9.5        9.5       10.6       11.7       11.7        0.0        0.0        0.0        0.0        0.0        0.0        0.0        0.0        0.0        0.0        0.0        0.0      1.7      14.2      19.9      26.8      33.6    391.85
    28     8  2011    59     3     232.0    13.5      0.0    0.0   13.4    0.1      0.0      0.0   -9.90      0.3      0.3    100     13.1     13.1   100     13.4    13.4     100     17.7    1.64      0      0      0      0      0    93.8    93.8      0     1.02     13.1     13.1     13.1   100    34.3     9.273     1.8    0.171    0.190      99        0.02    0.000    0.000     232.0    232.0    1.64   156.1     691.8     191.0     191.0     114.2     114.2      40.3    0.000     0.000     0.000     0.000     0.000    1.64     0.00    0.00      0   -9.90   -9.00       20.0        6.6        6.7        8.2        9.5        9.5        9.5        9.5        9.5       10.6       11.7       11.7        0.0        0.0        0.0        0.0        0.0        0.0        0.0        0.0        0.0        0.0        0.0        0.0     13.5      12.8      21.4      26.9      32.4    391.85
    29     8  2011    60     3     230.1     3.4      9.2    0.0    3.4    0.0      0.0      0.0   -9.90      0.3      0.3    100     14.2     14.2   100     14.5    14.5     100     17.4    1.66      0      0      0      0      0    93.9    93.9      0     1.02     14.2     14.2     14.2   100    34.3     9.624     2.3    0.218    0.242      99        0.03    0.000    0.000     230.1    230.1    1.66   157.0     700.1     193.3     193.3     119.4     119.4      40.8    0.000     0.000     0.000     0.000     0.000    1.66     0.00    0.00      0   -9.90   -9.00        9.4        9.4        9.5        9.5        9.5        9.5        9.5        9.5        9.5       10.1       11.7       11.7        0.0        0.0        0.0        0.0        0.0        0.0        0.0        0.0        0.0        0.0        0.0        0.0      3.4      13.9      20.7      27.1      33.5    391.85
    30     8  2011    61     3     228.6     1.7     11.0    0.0    1.7    0.0      0.0      0.0   -9.90      0.3      0.3    100     13.8     13.8   100     14.1    14.1     100     17.4    1.68      2      0      0      0      0    94.0    94.0      0     1.02     13.8     13.8     13.8   100    34.3     9.976     2.8    0.275    0.306      99        0.04    0.000    0.000     228.6    228.6    1.68   158.0     708.4     195.5     195.5     119.5     119.5      41.3    0.000     0.000     0.000     0.000     0.000    1.68     0.00    0.00      0   -9.90   -9.00        9.4        9.4        9.4        9.4        9.4        9.4        9.4        9.4        9.4        9.8       11.7       11.7        0.0        0.0        0.0        0.0        0.0        0.0        0.0        0.0        0.0        0.0        0.0        0.0      1.7      13.5      20.8      26.9      33.1    391.85
    31     8  2011    62     3     231.4     6.6     12.0    0.0    6.6    0.0      0.0      0.0   -9.90      0.4      0.4    100     15.5     15.5   100     15.9    15.9     100     16.7    1.70     -9      0      0      0      0    93.4    93.4      0     1.01     15.5     15.5     15.5   100    34.3    10.323     3.4    0.347    0.385      99        0.05    0.000    0.000     231.4    231.4    1.70   162.7     716.6     197.8     197.8     127.4     127.4      41.8    0.000     0.000     0.000     0.000     0.000    1.70     0.00    0.00      0   -9.90   -9.00        9.6        9.6        9.6        9.6        9.6        9.6        9.6        9.6        9.6        9.7       11.7       11.7        0.0        0.0        0.0        0.0        0.0        0.0        0.0        0.0        0.0        0.0        0.0        0.0      6.6      15.3      19.3      27.1      35.0    391.85
     1     9  2011    63     3     230.1     9.7      4.3    0.0    9.6    0.0      0.0      0.0   -9.90      0.3      0.3    100     14.8     14.8   100     15.2    15.2     100     17.6    1.71     -9      0      0      0      0    93.5    93.5      0     1.01     14.8     14.8     14.8   100    34.3    10.669     4.1    0.435    0.483      99        0.06    0.000    0.000     230.1    230.1    1.71   163.4     724.8     200.1     200.1     126.6     126.6      42.3    0.000     0.000     0.000     0.000     0.000    1.71     0.00    0.00      0   -9.90   -9.00        9.5        9.5        9.6        9.6        9.6        9.6        9.6        9.6        9.6        9.6       11.7       11.7        0.0        0.0        0.0        0.0        0.0        0.0        0.0        0.0        0.0        0.0        0.0        0.0      9.7      14.7      21.2      28.1      35.0    391.85
     2     9  2011    64     3     228.8     1.3     11.8    0.0    1.3    0.0      0.0      0.0   -9.90      0.3      0.3    100     14.1     14.1   100     14.4    14.4     100     17.0    1.73     -9      0      0      0      0    93.6    93.6      0     1.01     14.1     14.1     14.1   100    34.3    11.016     4.9    0.543    0.604      99        0.07    0.000    0.000     228.8    228.8    1.73   163.9     732.9     202.3     202.3     125.5     125.5      42.7    0.000     0.000     0.000     0.000     0.000    1.73     0.00    0.00      0   -9.90   -9.00        9.4        9.4        9.5        9.5        9.5        9.5        9.5        9.5        9.5        9.5       11.7       11.7        0.0        0.0        0.0        0.0        0.0        0.0        0.0        0.0        0.0        0.0        0.0        0.0      1.3      14.0      20.0      26.7      33.4    391.85
     3     9  2011    65     3     230.3     6.2     10.7    0.0    6.2    0.0      0.0      0.0   -9.90      0.3      0.3    100     15.0     15.0   100     15.3    15.3     100     16.8    1.75     -9      0      0      0      0    93.6    93.6      0     1.01     15.0     15.0     15.0   100    34.3    11.361     5.9    0.675    0.750      99        0.09    0.000    0.000     230.3    230.3    1.75   167.3     741.1     204.6     204.6     130.1     130.1      43.2    0.000     0.000     0.000     0.000     0.000    1.75     0.00    0.00      0   -9.90   -9.00        9.5        9.5        9.6        9.6        9.6        9.6        9.6        9.6        9.6        9.6       11.7       11.7        0.0        0.0        0.0        0.0        0.0        0.0        0.0        0.0        0.0        0.0        0.0        0.0      6.2      14.9      19.6      27.1      34.5    391.85
     4     9  2011    66     3     228.0     4.4      7.3    0.0    4.4    0.0      0.0      0.0   -9.90      0.3      0.3    100     13.7     13.7   100     14.0    14.0     100     17.2    1.77     -9      0      0      0      0    93.7    93.7      0     1.01     13.7     13.7     13.7   100    34.3    11.706     7.1    0.834    0.927      99        0.10    0.000    0.000     228.0    228.0    1.77   166.8     749.2     206.8     206.8     126.8     126.8      43.7    0.000     0.000     0.000     0.000     0.000    1.77     0.00    0.00      0   -9.90   -9.00        9.4        9.4        9.4        9.4        9.4        9.4        9.4        9.4        9.4        9.5       11.7       11.7        0.0        0.0        0.0        0.0        0.0        0.0        0.0        0.0        0.0        0.0        0.0        0.0      4.4      13.6      20.5      26.8      33.2    391.85
     5     9  2011    67     3     227.6     6.7      6.7    0.0    6.7    0.0      0.0      0.0   -9.90      0.3      0.3    100     13.5     13.5   100     13.8    13.8     100     17.3    1.79     -9      0      0      0      0    93.7    93.7      0     1.00     13.5     13.5     13.5   100    34.3    12.050     8.5    1.024    1.138      99        0.13    0.000    0.000     227.6    227.6    1.79   168.3     757.2     209.0     209.0     127.5     127.5      44.2    0.000     0.000     0.000     0.000     0.000    1.79     0.00    0.00      0   -9.90   -9.00        9.4        9.4        9.4        9.4        9.4        9.4        9.4        9.4        9.4        9.4       11.7       11.7        0.0        0.0        0.0        0.0        0.0        0.0        0.0        0.0        0.0        0.0        0.0        0.0      6.7      13.4      20.6      26.8      33.0    391.85
     6     9  2011    68     3     229.2    10.7      5.7    0.0   10.7    0.0      0.0      0.0   -9.90      0.3      0.3    100     14.4     14.4   100     14.7    14.7     100     16.7    1.81     -9      0      0      0      0    93.8    93.8      0     1.00     14.4     14.4     14.4   100    34.3    12.394    10.0    1.242    1.380      99        0.15    0.000    0.000     229.2    229.2    1.81   172.1     765.3     211.2     211.2     132.5     132.5      44.6    0.000     0.000     0.000     0.000     0.000    1.81     0.00    0.00      0   -9.90   -9.00        9.5        9.5        9.5        9.5        9.5        9.5        9.5        9.5        9.5        9.5       11.6       11.7        0.0        0.0        0.0        0.0        0.0        0.0        0.0        0.0        0.0        0.0        0.0        0.0     10.7      14.4      19.4      26.6      33.8    391.85
     7     9  2011    69     4     228.0     5.6      7.4    0.0    5.6    0.0      0.0      0.0   -9.90      0.3      0.3    100     14.0     14.0   100     14.3    14.3     100     16.9    1.83     -9      0      0      0      0    93.8    93.8      0     1.00     14.0     14.0     14.0   100    34.3    12.737    11.5    1.471    1.634      99        0.17    0.000    0.000     228.0    228.0    1.83   173.6     773.3     213.5     213.5     132.6     132.6      45.1    0.000     0.000     0.000     0.000     0.000    1.83     0.00    0.00      0   -9.90   -9.00        9.4        9.4        9.5        9.5        9.5        9.5        9.5        9.5        9.5        9.5       11.4       11.7        0.0        0.0        0.0        0.0        0.0        0.0        0.0        0.0        0.0        0.0        0.0        0.0      5.6      14.1      19.9      26.7      33.6    391.85
     8     9  2011    70     4     229.9     0.8     17.0    0.0    0.8    0.0      0.0      0.0   -9.90      0.3      0.3    100     15.5     15.5   100     15.8    15.8     100     16.7    1.85     -9      0      0      0      0    93.8    93.8      0     1.00     15.5     15.5     15.5   100    34.3    13.079    13.1    1.710    1.900      99        0.20    0.000    0.000     229.9    229.9    1.85   178.4     781.3     215.7     215.7     139.7     139.7      45.6    0.000     0.000     0.000     0.000     0.000    1.85     0.00    0.00      0   -9.90   -9.00        9.6        9.6        9.6        9.6        9.6        9.6        9.6        9.6        9.6        9.6       11.0       11.7        0.0        0.0        0.0        0.0        0.0        0.0        0.0        0.0        0.0        0.0        0.0        0.0      0.8      15.5      19.4      27.5      35.6    391.85
     9     9  2011    71     4     227.9     1.0     12.1    0.0    1.0    0.0      0.0      0.0   -9.90      0.3      0.3    100     14.9     14.9   100     15.2    15.2     100     16.9    1.87     -9      0      0      0      0    93.8    93.8      0     1.00     14.9     14.9     14.9   100    34.3    13.420    14.6    1.959    2.177      99        0.22    0.000    0.000     227.9    227.9    1.87   179.1     789.2     217.9     217.9     139.0     139.0      46.1    0.000     0.000     0.000     0.000     0.000    1.87     0.00    0.00      0   -9.90   -9.00        9.5        9.5        9.6        9.6        9.6        9.6        9.6        9.6        9.6        9.6       10.7       11.7        0.0        0.0        0.0        0.0        0.0        0.0        0.0        0.0        0.0        0.0        0.0        0.0      1.0      15.0      19.7      27.3      34.9    391.85
    10     9  2011    72     4     226.7     3.9      9.9    0.0    3.9    0.0      0.0      0.0   -9.90      0.3      0.3    100     14.7     14.7   100     15.0    15.0     100     16.3    1.89     -9      0      0      0      0    93.9    93.9      0     0.99     14.7     14.7     14.7   100    34.3    13.761    16.1    2.219    2.465      99        0.25    0.000    0.000     226.7    226.7    1.89   180.5     797.2     220.0     220.0     139.8     139.8      46.5    0.000     0.000     0.000     0.000     0.000    1.89     0.00    0.00      0   -9.90   -9.00        9.5        9.5        9.6        9.6        9.6        9.6        9.6        9.6        9.6        9.6       10.3       11.7        0.0        0.0        0.0        0.0        0.0        0.0        0.0        0.0        0.0        0.0        0.0        0.0      3.9      14.8      18.7      26.5      34.2    391.85
    11     9  2011    73     4     225.9     1.9     12.3    0.0    1.9    0.0      0.0      0.0   -9.90      0.3      0.3    100     14.6     14.6   100     14.9    14.9     100     16.5    1.90     -9      0      0      0      0    93.9    93.9      0     0.99     14.6     14.6     14.6   100    34.3    14.100    17.6    2.488    2.765      99        0.28    0.000    0.000     225.9    225.9    1.90   182.1     805.1     222.2     222.2     141.0     141.0      47.0    0.000     0.000     0.000     0.000     0.000    1.90     0.00    0.00      0   -9.90   -9.00        9.5        9.5        9.6        9.6        9.6        9.6        9.6        9.6        9.6        9.6       10.0       11.7        0.0        0.0        0.0        0.0        0.0        0.0        0.0        0.0        0.0        0.0        0.0        0.0      1.9      14.8      18.9      26.6      34.3    391.85
    12     9  2011    74     4     224.2     4.9      7.6    0.0    4.9    0.0      0.0      0.0   -9.90      0.3      0.3    100     14.0     14.0   100     14.3    14.3     100     17.3    1.92     -9      0      0      0      0    93.9    93.9      0     0.99     14.0     14.0     14.0   100    34.3    14.439    19.2    2.768    3.076      99        0.30    0.000    0.000     224.2    224.2    1.92   182.5     813.0     224.4     224.4     139.9     139.9      47.5    0.000     0.000     0.000     0.000     0.000    1.92     0.00    0.00      0   -9.90   -9.00        9.5        9.5        9.5        9.5        9.5        9.5        9.5        9.5        9.5        9.5        9.8       11.7        0.0        0.0        0.0        0.0        0.0        0.0        0.0        0.0        0.0        0.0        0.0        0.0      4.9      14.2      20.6      27.5      34.3    391.85
    13     9  2011    75     4     222.9     3.9      8.7    0.0    3.9    0.0      0.0      0.0   -9.90      0.3      0.3    100     13.6     13.6   100     13.8    13.8     100     17.1    1.94     -9      0      0      0      0    93.9    93.9      0     0.99     13.6     13.6     13.6   100    34.3    14.777    20.7    3.059    3.398      99        0.33    0.000    0.000     222.9    222.9    1.94   183.2     820.8     226.6     226.6     139.5     139.5      47.9    0.000     0.000     0.000     0.000     0.000    1.94     0.00    0.00      0   -9.90   -9.00        9.4        9.4        9.5        9.5        9.5        9.5        9.5        9.5        9.5        9.5        9.6       11.7        0.0        0.0        0.0        0.0        0.0        0.0        0.0        0.0        0.0        0.0        0.0        0.0      3.9      13.8      20.3      26.9      33.5    391.85
    14     9  2011    76     4     221.3     2.0      9.4    0.0    2.0    0.0      0.0      0.0   -9.90      0.3      0.3    100     12.7     12.7   100     13.0    13.0     100     17.7    1.96     -9      0     -9      0      0    93.4    93.4      0     0.97     12.7     12.7     12.7   100    34.3    15.111    22.2    3.358    3.731      99        0.36    0.000    0.000     221.3    221.3    1.96   183.4     828.6     228.7     228.7     137.9     137.9      48.4    0.000     0.000     0.000     0.000     0.000    1.96     0.00    0.00      0   -9.90   -9.00        9.3        9.3        9.4        9.4        9.4        9.4        9.4        9.4        9.4        9.4        9.5       11.7        0.0        0.0        0.0        0.0        0.0        0.0        0.0        0.0        0.0        0.0        0.0        0.0      2.0      13.1      21.5      27.3      33.2    391.85
    15     9  2011    77     4     225.5     0.5     18.7    0.0    0.5    0.0      0.0      0.0   -9.90      0.4      0.4    100     14.5     14.5   100     14.9    14.9     100     15.8    1.98     -9      0     -9      0      0    92.7    92.7      0     0.96     14.5     14.5     14.5   100    34.3    15.440    23.7    3.667    4.074      99        0.38    0.000    0.000     225.5    225.5    1.98   189.3     836.4     230.9     230.9     148.0     148.0      48.8    0.000     0.000     0.000     0.000     0.000    1.98     0.00    0.00      0   -9.90   -9.00        9.6        9.6        9.6        9.6        9.6        9.6        9.6        9.6        9.6        9.6        9.6       11.7        0.0        0.0        0.0        0.0        0.0        0.0        0.0        0.0        0.0        0.0        0.0        0.0      0.5      15.1      17.5      25.9      34.4    391.85
    16     9  2011    78     4     226.7     6.5      9.9    0.0    6.5    0.0      0.0      0.0   -9.90      0.5      0.5    100     14.8     14.8   100     15.3    15.3     100     16.1    2.00     -9      0     -9      0      0    91.9    91.9      0     0.94     14.8     14.8     14.8   100    34.3    15.764    25.3    3.984    4.427      99        0.41    0.000    0.000     226.7    226.7    2.00   192.2     844.2     233.0     233.0     151.5     151.5      49.3    0.000     0.000     0.000     0.000     0.000    2.00     0.00    0.00      0   -9.90   -9.00        9.6        9.6        9.7        9.7        9.7        9.7        9.7        9.7        9.7        9.7        9.6       11.7        0.0        0.0        0.0        0.0        0.0        0.0        0.0        0.0        0.0        0.0        0.0        0.0      6.5      15.6      18.3      26.9      35.6    391.85
    17     9  2011    79     4     222.7     3.5      5.9    0.0    3.5    0.0      0.0      0.0   -9.90      0.5      0.5    100     12.8     12.8   100     13.3    13.3     100     18.0    2.01     -9      0     -9      0      0    91.1    91.1      0     0.93     12.8     12.8     12.8   100    34.3    16.082    26.8    4.310    4.788      99        0.44    0.000    0.000     222.7    222.7    2.01   190.1     852.0     235.2     235.2     145.0     145.0      49.8    0.000     0.000     0.000     0.000     0.000    2.01     0.00    0.00      0   -9.90   -9.00        9.4        9.4        9.5        9.5        9.5        9.5        9.5        9.5        9.5        9.5        9.5       11.7        0.0        0.0        0.0        0.0        0.0        0.0        0.0        0.0        0.0        0.0        0.0        0.0      3.5      13.8      21.9      28.3      34.6    391.85
    18     9  2011    80     4     222.0    10.1      2.0    0.0   10.1    0.0      0.0      0.0   -9.90      0.6      0.6    100     12.3     12.3   100     12.9    12.9     100     17.3    2.03     -9      0     -9      0      0    90.1    90.1      0     0.91     12.3     12.3     12.3   100    34.3    16.394    28.3    4.643    5.159      99        0.46    0.000    0.000     222.0    222.0    2.03   191.1     859.7     237.3     237.3     145.0     145.0      50.2    0.000     0.000     0.000     0.000     0.000    2.03     0.00    0.00      0   -9.90   -9.00        9.4        9.4        9.4        9.4        9.4        9.4        9.4        9.4        9.4        9.4        9.4       11.7        0.0        0.0        0.0        0.0        0.0        0.0        0.0        0.0        0.0        0.0        0.0        0.0     10.1      13.5      20.6      27.1      33.5    391.85
    19     9  2011    81     4     225.5     7.1     10.5    0.0    7.1    0.0      0.0      0.0   -9.90      0.8      0.8    100     13.4     13.4   100     14.2    14.2     100     17.5    2.05     -9      0     -9      0      0    89.0    89.0      0     0.89     13.4     13.4     13.4   100    34.3    16.699    29.8    4.984    5.538      99        0.49    0.000    0.000     225.5    225.5    2.05   196.3     867.4     239.4     239.4     153.2     153.2      50.7    0.000     0.000     0.000     0.000     0.000    2.05     0.00    0.00      0   -9.90   -9.00        9.6        9.6        9.6        9.6        9.6        9.6        9.6        9.6        9.6        9.6        9.6       11.7        0.0        0.0        0.0        0.0        0.0        0.0        0.0        0.0        0.0        0.0        0.0        0.0      7.1      15.1      20.9      28.5      36.1    391.85
    20     9  2011    82     4     224.1     2.3      9.9    0.0    2.3    0.0      0.0      0.0   -9.90      0.9      0.9    100     12.7     12.7   100     13.6    13.6     100     16.1    2.07     -9      0     -9      0      0    87.8    87.8      0     0.87     12.7     12.7     12.7   100    34.3    16.996    31.4    5.332    5.925      99        0.52    0.000    0.000     224.1    224.1    2.07   197.4     875.1     241.5     241.5     152.6     152.6      51.1    0.000     0.000     0.000     0.000     0.000    2.07     0.00    0.00      0   -9.90   -9.00        9.5        9.5        9.6        9.6        9.6        9.6        9.6        9.6        9.6        9.6        9.6       11.5        0.0        0.0        0.0        0.0        0.0        0.0        0.0        0.0        0.0        0.0        0.0        0.0      2.3      14.6      18.2      26.1      34.1    391.85
    21     9  2011    83     4     220.9     5.4      3.7    0.0    5.4    0.0      0.0      0.0   -9.90      0.9      0.9    100     11.4     11.4   100     12.3    12.3     100     17.9    2.09     -9      0     -9      0      0    86.4    86.4      0     0.84     11.4     11.4     11.4   100    34.3    17.285    32.9    5.686    6.318      99        0.55    0.000    0.000     220.9    220.9    2.09   197.0     882.8     243.7     243.7     149.0     149.0      51.6    0.000     0.000     0.000     0.000     0.000    2.09     0.00    0.00      0   -9.90   -9.00        9.4        9.4        9.4        9.4        9.4        9.4        9.4        9.4        9.4        9.4        9.4       11.2        0.0        0.0        0.0        0.0        0.0        0.0        0.0        0.0        0.0        0.0        0.0        0.0      5.4      13.5      21.8      28.0      34.3    391.85
    22     9  2011    84     4     215.9     4.5      1.1    0.0    4.5    0.0      0.0      0.0   -9.90      0.9      0.9    100      9.6      9.6   100     10.5    10.5     100     17.8    2.10     -9      0     -9      0      0    84.9    84.9      0     0.82      9.6      9.6      9.6   100    34.3    17.565    34.4    6.046    6.718      99        0.58    0.000    0.000     215.9    215.9    2.10   194.9     890.4     245.8     245.8     142.3     142.3      52.0    0.000     0.000     0.000     0.000     0.000    2.10     0.00    0.00      0   -9.90   -9.00        9.2        9.2        9.2        9.2        9.2        9.2        9.2        9.2        9.2        9.2        9.2       10.8        0.0        0.0        0.0        0.0        0.0        0.0        0.0        0.0        0.0        0.0        0.0        0.0      4.5      11.7      21.6      26.6      31.6    391.85
    23     9  2011    85     4     222.4     8.3     11.4    0.0    8.3    0.0      0.0      0.0   -9.90      1.3      1.3    100     11.9     11.9   100     13.2    13.2     100     17.0    2.12     -9      0     -9      0      0    83.1    83.1      0     0.79     11.9     11.9     11.9   100    34.3    17.835    35.9    6.411    7.123      99        0.60    0.000    0.000     222.4    222.4    2.12   204.0     898.0     247.9     247.9     158.8     158.8      52.5    0.000     0.000     0.000     0.000     0.000    2.12     0.00    0.00      0   -9.90   -9.00        9.6        9.6        9.6        9.6        9.6        9.6        9.6        9.6        9.6        9.6        9.6       10.4        0.0        0.0        0.0        0.0        0.0        0.0        0.0        0.0        0.0        0.0        0.0        0.0      8.3      15.1      20.0      27.9      35.9    391.85
    24     9  2011    86     4     218.8     5.5      2.6    0.0    5.5    0.0      0.0      0.0   -9.90      1.4      1.4    100     10.4     10.4   100     11.8    11.8     100     17.3    2.14     -9      0     -9      0      0    81.1    81.1      0     0.75     10.4     10.4     10.4   100    34.3    18.093    37.5    6.780    7.533      99        0.63    0.000    0.000     218.8    218.8    2.14   202.7     905.6     250.0     250.0     154.4     154.4      52.9    0.000     0.000     0.000     0.000     0.000    2.14     0.00    0.00      0   -9.90   -9.00        9.4        9.4        9.5        9.5        9.5        9.5        9.5        9.5        9.5        9.5        9.5       10.1        0.0        0.0        0.0        0.0        0.0        0.0        0.0        0.0        0.0        0.0        0.0        0.0      5.5      13.8      20.7      27.5      34.3    391.85
    25     9  2011    87     4     218.8     1.6     10.3    0.0    1.6    0.0      0.0      0.0   -9.90      1.6      1.6    100     10.2     10.2   100     11.7    11.7     100     17.7    2.16     -9      0     -9      0      0    78.9    78.9      0     0.72     10.2     10.2     10.2   100    34.3    18.340    39.0    7.152    7.947      99        0.66    0.000    0.000     218.8    218.8    2.16   205.0     913.2     252.1     252.1     157.1     157.1      53.4    0.000     0.000     0.000     0.000     0.000    2.16     0.00    0.00      0   -9.90   -9.00        9.5        9.5        9.5        9.5        9.5        9.5        9.5        9.5        9.5        9.5        9.5        9.8        0.0        0.0        0.0        0.0        0.0        0.0        0.0        0.0        0.0        0.0        0.0        0.0      1.6      14.2      21.3      28.2      35.2    391.85
[...]
    10    12  2015    -9     0     207.8     3.4      0.0    0.0    3.4    0.0      0.0      0.0   -9.90     13.4      4.3     32      0.0      0.0   100     13.4     4.3      32     16.6    2.28     -9     -9     -9      0     -9     0.0     0.0      0    -9.00      0.0      0.0      0.0   100    34.5    19.804    48.2    9.541   10.601      99        0.80    0.000    0.000     207.8    207.8    2.28   206.1     965.7     266.5     266.5     156.6     165.4      56.5    0.000     0.000     0.000     0.000     0.000    2.28     0.00    0.00      0   -9.90   -9.00        2.9        7.1        9.5        9.5        9.5        9.5        9.5        9.5        9.5        9.5        9.5        9.5        0.0        0.0        0.0        0.0        0.0        0.0        0.0        0.0        0.0        0.0        0.0        0.0      3.4      12.2      19.1      27.1      35.0    401.01
    11    12  2015    -9     0     207.2     3.3      0.0    0.0    3.3    0.0      0.0      0.0   -9.90     12.2      3.9     32      0.0      0.0   100     12.2     3.9      32     17.1    2.28     -9     -9     -9      0     -9     0.0     0.0      0    -9.00      0.0      0.0      0.0   100    34.5    19.804    48.2    9.541   10.601      99        0.80    0.000    0.000     207.2    207.2    2.28   205.5     965.7     266.5     266.5     151.1     165.4      56.5    0.000     0.000     0.000     0.000     0.000    2.28     0.00    0.00      0   -9.90   -9.00        2.3        7.1        9.5        9.5        9.5        9.5        9.5        9.5        9.5        9.5        9.5        9.5        0.0        0.0        0.0        0.0        0.0        0.0        0.0        0.0        0.0        0.0        0.0        0.0      3.3      11.1      20.2      26.8      33.5    401.01
    12    12  2015    -9     0     206.7     4.0      0.0    0.0    4.0    0.0      0.0      0.0   -9.90     12.4      4.5     36      0.0      0.0   100     12.4     4.5      36     16.5    2.28     -9     -9     -9      0     -9     0.0     0.0      0    -9.00      0.0      0.0      0.0   100    34.5    19.804    48.2    9.541   10.601      99        0.80    0.000    0.000     206.7    206.7    2.28   205.0     965.7     266.5     266.5     152.0     165.4      56.5    0.000     0.000     0.000     0.000     0.000    2.28     0.00    0.00      0   -9.90   -9.00        1.8        7.1        9.5        9.5        9.5        9.5        9.5        9.5        9.5        9.5        9.5        9.5        0.0        0.0        0.0        0.0        0.0        0.0        0.0        0.0        0.0        0.0        0.0        0.0      4.0      11.3      19.1      26.1      33.2    401.01
    13    12  2015    -9     0     207.9     5.9      0.0    0.0    5.9    0.0      0.0      0.0   -9.90     12.4      4.8     38      0.0      0.0   100     12.4     4.8      38     17.5    2.28     -9     -9     -9      0     -9     0.0     0.0      0    -9.00      0.0      0.0      0.0   100    34.5    19.804    48.2    9.541   10.601      99        0.80    0.000    0.000     207.9    207.9    2.28   206.2     965.7     266.5     266.5     152.1     165.4      56.5    0.000     0.000     0.000     0.000     0.000    2.28     0.00    0.00      0   -9.90   -9.00        3.0        7.1        9.5        9.5        9.5        9.5        9.5        9.5        9.5        9.5        9.5        9.5        0.0        0.0        0.0        0.0        0.0        0.0        0.0        0.0        0.0        0.0        0.0        0.0      5.9      11.3      21.0      27.6      34.3    401.01
    14    12  2015    -9     0     207.2     2.0      0.0    0.0    2.0    0.0      0.0      0.0   -9.90     11.8      2.7     23      0.0      0.0   100     11.8     2.7      23     18.0    2.28     -9     -9     -9      0     -9     0.0     0.0      0    -9.00      0.0      0.0      0.0   100    34.5    19.804    48.2    9.541   10.601      99        0.80    0.000    0.000     207.2    207.2    2.28   205.5     965.7     266.5     266.5     149.5     165.4      56.5    0.000     0.000     0.000     0.000     0.000    2.28     0.00    0.00      0   -9.90   -9.00        2.3        7.1        9.5        9.5        9.5        9.5        9.5        9.5        9.5        9.5        9.5        9.5        0.0        0.0        0.0        0.0        0.0        0.0        0.0        0.0        0.0        0.0        0.0        0.0      2.0      10.8      22.0      28.0      34.0    401.01
    15    12  2015    -9     0     206.5     1.1      0.0    0.0    1.1    0.0      0.0      0.0   -9.90     13.4      1.8     13      0.0      0.0   100     13.4     1.8      13     16.7    2.28     -9     -9     -9      0     -9     0.0     0.0      0    -9.00      0.0      0.0      0.0   100    34.5    19.804    48.2    9.541   10.601      99        0.80    0.000    0.000     206.5    206.5    2.28   204.8     965.7     266.5     266.5     156.3     165.4      56.5    0.000     0.000     0.000     0.000     0.000    2.28     0.00    0.00      0   -9.90   -9.00        1.6        7.1        9.5        9.5        9.5        9.5        9.5        9.5        9.5        9.5        9.5        9.5        0.0        0.0        0.0        0.0        0.0        0.0        0.0        0.0        0.0        0.0        0.0        0.0      1.1      12.1      19.4      27.2      35.1    401.01
    16    12  2015    -9     0     206.1     4.1      0.0    0.0    4.1    0.0      0.0      0.0   -9.90     13.7      4.5     33      0.0      0.0   100     13.7     4.5      33     17.4    2.28     -9     -9     -9      0     -9     0.0     0.0      0    -9.00      0.0      0.0      0.0   100    34.5    19.804    48.2    9.541   10.601      99        0.80    0.000    0.000     206.1    206.1    2.28   204.4     965.7     266.5     266.5     158.0     165.4      56.5    0.000     0.000     0.000     0.000     0.000    2.28     0.00    0.00      0   -9.90   -9.00        1.2        7.1        9.5        9.5        9.5        9.5        9.5        9.5        9.5        9.5        9.5        9.5        0.0        0.0        0.0        0.0        0.0        0.0        0.0        0.0        0.0        0.0        0.0        0.0      4.1      12.5      20.8      28.6      36.4    401.01
    17    12  2015    -9     0     205.6     3.2      0.0    0.0    3.2    0.0      0.0      0.0   -9.90     13.4      3.7     27      0.0      0.0   100     13.4     3.7      27     17.3    2.28     -9     -9     -9      0     -9     0.0     0.0      0    -9.00      0.0      0.0      0.0   100    34.5    19.804    48.2    9.541   10.601      99        0.80    0.000    0.000     205.6    205.6    2.28   204.0     965.7     266.5     266.5     156.5     165.4      56.5    0.000     0.000     0.000     0.000     0.000    2.28     0.00    0.00      0   -9.90   -9.00        1.2        6.8        9.5        9.5        9.5        9.5        9.5        9.5        9.5        9.5        9.5        9.5        0.0        0.0        0.0        0.0        0.0        0.0        0.0        0.0        0.0        0.0        0.0        0.0      3.2      12.2      20.6      28.2      35.8    401.01
    18    12  2015    -9     0     212.9    15.2      0.0    0.0   15.2    0.0      0.0      0.0   -9.90     11.3      8.0     70      0.0      0.0   100     11.3     8.0      70     16.8    2.28     -9     -9     -9      0     -9     0.0     0.0      0    -9.00      0.0      0.0      0.0   100    34.5    19.804    48.2    9.541   10.601      99        0.80    0.000    0.000     212.9    212.9    2.28   211.2     965.7     266.5     266.5     147.3     165.4      56.5    0.000     0.000     0.000     0.000     0.000    2.28     0.00    0.00      0   -9.90   -9.00        8.5        6.8        9.5        9.5        9.5        9.5        9.5        9.5        9.5        9.5        9.5        9.5        0.0        0.0        0.0        0.0        0.0        0.0        0.0        0.0        0.0        0.0        0.0        0.0     15.2      10.3      19.6      25.6      31.7    401.01
    19    12  2015    -9     0     214.8     9.9      0.0    0.0    9.9    0.0      0.0      0.0   -9.90     10.7      7.9     74      0.0      0.0   100     10.7     7.9      74     18.3    2.28     -9     -9     -9      0     -9     0.0     0.0      0    -9.00      0.0      0.0      0.0   100    34.5    19.804    48.2    9.541   10.601      99        0.80    0.000    0.000     214.8    214.8    2.28   213.2     965.7     266.5     266.5     144.5     165.4      56.5    0.000     0.000     0.000     0.000     0.000    2.28     0.00    0.00      0   -9.90   -9.00       10.5        6.8        9.5        9.5        9.5        9.5        9.5        9.5        9.5        9.5        9.5        9.5        0.0        0.0        0.0        0.0        0.0        0.0        0.0        0.0        0.0        0.0        0.0        0.0      9.9       9.7      22.6      27.6      32.5    401.01
    20    12  2015    -9     0     214.5     8.4      0.0    0.0    8.4    0.0      0.0      0.0   -9.90     13.1      8.8     67      0.0      0.0   100     13.1     8.8      67     17.1    2.28     -9     -9     -9      0     -9     0.0     0.0      0    -9.00      0.0      0.0      0.0   100    34.5    19.804    48.2    9.541   10.601      99        0.80    0.000    0.000     214.5    214.5    2.28   212.8     965.7     266.5     266.5     155.1     165.4      56.5    0.000     0.000     0.000     0.000     0.000    2.28     0.00    0.00      0   -9.90   -9.00       10.2        6.8        9.5        9.5        9.5        9.5        9.5        9.5        9.5        9.5        9.5        9.5        0.0        0.0        0.0        0.0        0.0        0.0        0.0        0.0        0.0        0.0        0.0        0.0      8.4      11.9      20.3      27.7      35.1    401.01
    21    12  2015    -9     0     212.6     6.2      0.0    0.0    6.2    0.0      0.0      0.0   -9.90     11.9      8.0     67      0.0      0.0   100     11.9     8.0      67     17.7    2.28     -9     -9     -9      0     -9     0.0     0.0      0    -9.00      0.0      0.0      0.0   100    34.5    19.804    48.2    9.541   10.601      99        0.80    0.000    0.000     212.6    212.6    2.28   211.0     965.7     266.5     266.5     149.8     165.4      56.5    0.000     0.000     0.000     0.000     0.000    2.28     0.00    0.00      0   -9.90   -9.00        8.3        6.8        9.5        9.5        9.5        9.5        9.5        9.5        9.5        9.5        9.5        9.5        0.0        0.0        0.0        0.0        0.0        0.0        0.0        0.0        0.0        0.0        0.0        0.0      6.2      10.8      21.5      27.6      33.7    401.01
    22    12  2015    -9     0     209.6     2.3      0.0    0.0    2.3    0.0      0.0      0.0   -9.90     12.4      5.3     43      0.0      0.0   100     12.4     5.3      43     17.3    2.28     -9     -9     -9      0     -9     0.0     0.0      0    -9.00      0.0      0.0      0.0   100    34.5    19.804    48.2    9.541   10.601      99        0.80    0.000    0.000     209.6    209.6    2.28   207.9     965.7     266.5     266.5     152.0     165.4      56.5    0.000     0.000     0.000     0.000     0.000    2.28     0.00    0.00      0   -9.90   -9.00        5.2        6.8        9.5        9.5        9.5        9.5        9.5        9.5        9.5        9.5        9.5        9.5        0.0        0.0        0.0        0.0        0.0        0.0        0.0        0.0        0.0        0.0        0.0        0.0      2.3      11.3      20.6      27.3      34.0    401.01
    23    12  2015    -9     0     211.4    10.0      0.0    0.0   10.0    0.0      0.0      0.0   -9.90     12.2      8.2     67      0.0      0.0   100     12.2     8.2      67     17.8    2.28     -9     -9     -9      0     -9     0.0     0.0      0    -9.00      0.0      0.0      0.0   100    34.5    19.804    48.2    9.541   10.601      99        0.80    0.000    0.000     211.4    211.4    2.28   209.7     965.7     266.5     266.5     151.1     165.4      56.5    0.000     0.000     0.000     0.000     0.000    2.28     0.00    0.00      0   -9.90   -9.00        7.0        6.8        9.5        9.5        9.5        9.5        9.5        9.5        9.5        9.5        9.5        9.5        0.0        0.0        0.0        0.0        0.0        0.0        0.0        0.0        0.0        0.0        0.0        0.0     10.0      11.1      21.5      27.8      34.2    401.01
    24    12  2015    -9     0     214.8    12.1      0.0    0.0   12.1    0.0      0.0      0.0   -9.90     12.3      8.7     71      0.0      0.0   100     12.3     8.7      71     17.2    2.28     -9     -9     -9      0     -9     0.0     0.0      0    -9.00      0.0      0.0      0.0   100    34.5    19.804    48.2    9.541   10.601      99        0.80    0.000    0.000     214.8    214.8    2.28   213.1     965.7     266.5     266.5     151.8     165.4      56.5    0.000     0.000     0.000     0.000     0.000    2.28     0.00    0.00      0   -9.90   -9.00       10.5        6.8        9.5        9.5        9.5        9.5        9.5        9.5        9.5        9.5        9.5        9.5        0.0        0.0        0.0        0.0        0.0        0.0        0.0        0.0        0.0        0.0        0.0        0.0     12.1      11.2      20.4      27.1      33.8    401.01
    25    12  2015    -9     0     210.1     1.3      0.0    0.0    1.3    0.0      0.0      0.0   -9.90     12.7      5.9     47      0.0      0.0   100     12.7     5.9      47     16.8    2.28     -9     -9     -9      0     -9     0.0     0.0      0    -9.00      0.0      0.0      0.0   100    34.5    19.804    48.2    9.541   10.601      99        0.80    0.000    0.000     210.1    210.1    2.28   208.5     965.7     266.5     266.5     153.3     165.4      56.5    0.000     0.000     0.000     0.000     0.000    2.28     0.00    0.00      0   -9.90   -9.00        5.8        6.8        9.5        9.5        9.5        9.5        9.5        9.5        9.5        9.5        9.5        9.5        0.0        0.0        0.0        0.0        0.0        0.0        0.0        0.0        0.0        0.0        0.0        0.0      1.3      11.5      19.5      26.7      34.0    401.01
    26    12  2015    -9     0     212.5    11.2      0.0    0.0   11.2    0.0      0.0      0.0   -9.90     14.0      8.8     63      0.0      0.0   100     14.0     8.8      63     16.9    2.28     -9     -9     -9      0     -9     0.0     0.0      0    -9.00      0.0      0.0      0.0   100    34.5    19.804    48.2    9.541   10.601      99        0.80    0.000    0.000     212.5    212.5    2.28   210.9     965.7     266.5     266.5     159.1     165.4      56.5    0.000     0.000     0.000     0.000     0.000    2.28     0.00    0.00      0   -9.90   -9.00        8.2        6.8        9.5        9.5        9.5        9.5        9.5        9.5        9.5        9.5        9.5        9.5        0.0        0.0        0.0        0.0        0.0        0.0        0.0        0.0        0.0        0.0        0.0        0.0     11.2      12.7      19.8      28.1      36.3    401.01
    27    12  2015    -9     0     209.4     1.8      0.0    0.0    1.8    0.0      0.0      0.0   -9.90     12.8      4.9     38      0.0      0.0   100     12.8     4.9      38     16.4    2.28     -9     -9     -9      0     -9     0.0     0.0      0    -9.00      0.0      0.0      0.0   100    34.5    19.804    48.2    9.541   10.601      99        0.80    0.000    0.000     209.4    209.4    2.28   207.7     965.7     266.5     266.5     154.0     165.4      56.5    0.000     0.000     0.000     0.000     0.000    2.28     0.00    0.00      0   -9.90   -9.00        5.0        6.8        9.5        9.5        9.5        9.5        9.5        9.5        9.5        9.5        9.5        9.5        0.0        0.0        0.0        0.0        0.0        0.0        0.0        0.0        0.0        0.0        0.0        0.0      1.8      11.7      18.9      26.3      33.8    401.01
    28    12  2015    -9     0     208.6     4.5      0.0    0.0    4.5    0.0      0.0      0.0   -9.90     12.8      5.3     42      0.0      0.0   100     12.8     5.3      42     16.3    2.28     -9     -9     -9      0     -9     0.0     0.0      0    -9.00      0.0      0.0      0.0   100    34.5    19.804    48.2    9.541   10.601      99        0.80    0.000    0.000     208.6    208.6    2.28   206.9     965.7     266.5     266.5     153.8     165.4      56.5    0.000     0.000     0.000     0.000     0.000    2.28     0.00    0.00      0   -9.90   -9.00        4.2        6.8        9.5        9.5        9.5        9.5        9.5        9.5        9.5        9.5        9.5        9.5        0.0        0.0        0.0        0.0        0.0        0.0        0.0        0.0        0.0        0.0        0.0        0.0      4.5      11.6      18.7      26.2      33.6    401.01
    29    12  2015    -9     0     207.5     0.4      0.0    0.0    0.4    0.0      0.0      0.0   -9.90     12.2      1.5     12      0.0      0.0   100     12.2     1.5      12     17.1    2.28     -9     -9     -9      0     -9     0.0     0.0      0    -9.00      0.0      0.0      0.0   100    34.5    19.804    48.2    9.541   10.601      99        0.80    0.000    0.000     207.5    207.5    2.28   205.8     965.7     266.5     266.5     151.4     165.4      56.5    0.000     0.000     0.000     0.000     0.000    2.28     0.00    0.00      0   -9.90   -9.00        3.0        6.8        9.5        9.5        9.5        9.5        9.5        9.5        9.5        9.5        9.5        9.5        0.0        0.0        0.0        0.0        0.0        0.0        0.0        0.0        0.0        0.0        0.0        0.0      0.4      11.1      20.3      26.9      33.5    401.01
    30    12  2015    -9     0     209.2     7.7      0.0    0.0    7.7    0.0      0.0      0.0   -9.90     13.2      6.0     45      0.0      0.0   100     13.2     6.0      45     17.0    2.28     -9     -9     -9      0     -9     0.0     0.0      0    -9.00      0.0      0.0      0.0   100    34.5    19.804    48.2    9.541   10.601      99        0.80    0.000    0.000     209.2    209.2    2.28   207.5     965.7     266.5     266.5     155.8     165.4      56.5    0.000     0.000     0.000     0.000     0.000    2.28     0.00    0.00      0   -9.90   -9.00        4.8        6.8        9.5        9.5        9.5        9.5        9.5        9.5        9.5        9.5        9.5        9.5        0.0        0.0        0.0        0.0        0.0        0.0        0.0        0.0        0.0        0.0        0.0        0.0      7.7      12.0      20.0      27.5      35.0    401.01
    31    12  2015    -9     0     208.1     3.9      0.0    0.0    3.9    0.0      0.0      0.0   -9.90     12.9      5.0     39      0.0      0.0   100     12.9     5.0      39     16.3    2.28     -9     -9     -9      0     -9     0.0     0.0      0    -9.00      0.0      0.0      0.0   100    34.5    19.804    48.2    9.541   10.601      99        0.80    0.000    0.000     208.1    208.1    2.28   206.4     965.7     266.5     266.5     154.2     165.4      56.5    0.000     0.000     0.000     0.000     0.000    2.28     0.00    0.00      0   -9.90   -9.00        3.7        6.8        9.5        9.5        9.5        9.5        9.5        9.5        9.5        9.5        9.5        9.5        0.0        0.0        0.0        0.0        0.0        0.0        0.0        0.0        0.0        0.0        0.0        0.0      3.9      11.7      18.6      26.1      33.7    401.01
