AquaCrop 7.1 (August 2023) - Output created on (date) : 29-01-2026   at (time) : 01:20:25

    RunNr     Day1   Month1    Year1     Rain      ETo       GD     CO2      Irri   Infilt   Runoff    Drain   Upflow        E     E/Ex       Tr      TrW   Tr/Trx    SaltIn   SaltOut    SaltUp  SaltProf     Cycle   SaltStr  FertStr  WeedStr  TempStr   ExpStr   StoStr  BioMass  Brelative   HI    Y(dry)  Y(fresh)    WPet      Bin     Bout     DayN   MonthN    YearN
                                           mm       mm  degC.day    ppm        mm       mm       mm       mm       mm       mm        %       mm       mm        %    ton/ha    ton/ha    ton/ha    ton/ha      days       %        %        %        %        %        %    ton/ha        %       %    ton/ha   ton/ha    kg/m3   ton/ha   ton/ha
   Tot(1)        1        7     2024    173.8     47.2   3540.1   422.57      0.0    170.0      3.8    143.9      0.0     21.6       58     12.5     12.5      100     0.000     0.000     0.000     0.000       89        0       30        0        0        0        0    20.205      100     48.0    9.698   10.776    46.85    0.000    0.000       31       12     2024  cluster_113.PRM
   Tot(2)        1        7     2025    217.5     45.9   3499.1   424.57      0.0    204.9     12.6    173.6      0.0     25.3       71     12.8     12.8      100     0.000     0.000     0.000     0.000       89        0       30        0        0        0        0    20.220      100     48.0    9.706   10.784    45.71    0.000    0.000       31       12     2025  cluster_113.PRM
