AquaCrop 7.1 (August 2023) - Output created on (date) : 16-01-2026   at (time) : 12:17:27

    RunNr     Day1   Month1    Year1     Rain      ETo       GD     CO2      Irri   Infilt   Runoff    Drain   Upflow        E     E/Ex       Tr      TrW   Tr/Trx    SaltIn   SaltOut    SaltUp  SaltProf     Cycle   SaltStr  FertStr  WeedStr  TempStr   ExpStr   StoStr  BioMass  Brelative   HI    Y(dry)  Y(fresh)    WPet      Bin     Bout     DayN   MonthN    YearN
                                           mm       mm  degC.day    ppm        mm       mm       mm       mm       mm       mm        %       mm       mm        %    ton/ha    ton/ha    ton/ha    ton/ha      days       %        %        %        %        %        %    ton/ha        %       %    ton/ha   ton/ha    kg/m3   ton/ha   ton/ha
   Tot(1)        1        7     2011   1135.4   2422.1   3133.6   391.85    531.2   1130.7      4.7      0.0      0.0    881.5       51    828.8    828.8      100     0.000     0.000     0.000     0.000       89        0       30        0        0        0        0    19.921      100     48.1    9.585   10.650     0.81    0.000    0.000       31       12     2011  cluster_354.PRM
   Tot(2)        1        7     2012   1074.7   2420.1   3130.1   394.06    584.5   1072.1      2.6      0.0      0.0    886.4       51    812.9    812.9      100     0.000     0.000     0.000     0.000       89        0       30        0        0        1        0    19.705       99     48.2    9.493   10.548     0.83    0.000    0.000       31       12     2012  cluster_354.PRM
   Tot(3)        1        7     2013   1182.5   2430.7   3121.2   396.74    528.3   1179.0      3.5      0.0      0.0    915.5       53    834.6    834.6      100     0.000     0.000     0.000     0.000       89        0       30        0        0        0        0    19.949      100     48.2    9.611   10.679     0.82    0.000    0.000       31       12     2013  cluster_354.PRM
   Tot(4)        1        7     2014   1071.6   2413.8   3120.8   398.81    490.4   1067.9      3.7      0.0      0.0    805.8       47    808.8    808.8      100     0.000     0.000     0.000     0.000       89        0       30        0        0        2        0    19.629       98     48.2    9.456   10.507     0.84    0.000    0.000       31       12     2014  cluster_354.PRM
   Tot(5)        1        7     2015   1233.9   2435.7   3126.3   401.01    564.6   1224.7      9.2     12.5      0.0    970.3       57    839.4    839.4      100     0.000     0.000     0.000     0.000       89        0       30        0        0        0        0    20.004      100     48.2    9.637   10.708     0.81    0.000    0.000       31       12     2015  cluster_354.PRM
