AquaCrop 7.1 (August 2023) - Output created on (date) : 16-01-2026   at (time) : 12:17:27

   Run:   1
   Day Month  Year   DAP Stage   WC(2.30)   Rain     Irri   Surf   Infilt   RO    Drain       CR    Zgwt       Ex       E     E/Ex     Trx       Tr  Tr/Trx    ETx      ET  ET/ETx      GD       Z     StExp  StSto  StSen StSalt StWeed   CC      CCw     StTr  Kc(Tr)     Trx       Tr      TrW  Tr/Trx   WP    Biomass     HI    Y(dry)  Y(fresh)  Brelative    WPet      Bin     Bout  WC(2.30) Wr(2.30)     Z       Wr    Wr(SAT)    Wr(FC)   Wr(exp)   Wr(sto)   Wr(sen)   Wr(PWP)    SaltIn    SaltOut   SaltUp   Salt(2.30)  SaltZ     Z       ECe    ECsw   StSalt  Zgwt    ECgw       WC01       WC 2       WC 3       WC 4       WC 5       WC 6       WC 7       WC 8       WC 9       WC10       WC11       WC12      ECe01      ECe 2      ECe 3      ECe 4      ECe 5      ECe 6      ECe 7      ECe 8      ECe 9      ECe10      ECe11      ECe12     Rain       ETo      Tmin      Tavg      Tmax      CO2
                                      mm      mm       mm     mm     mm     mm       mm       mm      m        mm       mm     %        mm       mm    %        mm      mm       %  degC-day     m       %      %      %      %      %      %       %       %       -        mm       mm       mm    %     g/m2    ton/ha      %    ton/ha   ton/ha       %       kg/m3   ton/ha   ton/ha      mm       mm       m       mm        mm        mm        mm        mm        mm         mm    ton/ha    ton/ha    ton/ha    ton/ha    ton/ha     m      dS/m    dS/m      %     m      dS/m       0.05       0.18       0.33       0.48       0.63       0.80       1.00       1.20       1.43       1.68       1.93       2.18       0.05       0.18       0.33       0.48       0.63       0.80       1.00       1.20       1.43       1.68       1.93       2.18       mm        mm     degC      degC      degC       ppm
     1     7  2011     1     1     262.2     1.4      0.0    0.0    1.4    0.0      0.0      0.0   -9.90     17.5      7.8     45      0.0      0.0   100     17.5     7.8      45     16.2    0.30     -9     -9     -9      0     -9     0.0     0.0      0    -9.00      0.0      0.0      0.0   100     0.0     0.000    -9.9    0.000    0.000      -9        0.00    0.000    0.000     262.2    262.2    0.30    28.2     125.1      34.6      30.7      22.5      15.5       6.9    0.000     0.000     0.000     0.000     0.000    0.30     0.00    0.00      0   -9.90   -9.00        5.2       11.7       11.7       11.7       11.7       11.7       11.7       11.7       11.7       11.7       11.7       11.7        0.0        0.0        0.0        0.0        0.0        0.0        0.0        0.0        0.0        0.0        0.0        0.0      1.4      15.9      18.3      26.7      35.1    391.85
     2     7  2011     2     1     259.1     3.3      0.0    0.0    3.3    0.0      0.0      0.0   -9.90     16.3      6.4     39      0.0      0.0   100     16.3     6.4      39     17.2    0.30     -9     -9     -9      0     -9     0.0     0.0      0    -9.00      0.0      0.0      0.0   100     0.0     0.000    -9.9    0.000    0.000      -9        0.00    0.000    0.000     259.1    259.1    0.30    25.1     125.1      34.6      30.7      21.8      15.5       6.9    0.000     0.000     0.000     0.000     0.000    0.30     0.00    0.00      0   -9.90   -9.00        2.1       11.7       11.7       11.7       11.7       11.7       11.7       11.7       11.7       11.7       11.7       11.7        0.0        0.0        0.0        0.0        0.0        0.0        0.0        0.0        0.0        0.0        0.0        0.0      3.3      14.8      20.4      27.4      34.5    391.85
     3     7  2011     3     1     263.8    14.5      0.0    0.0   14.5    0.0      0.0      0.0   -9.90     16.4      9.9     60      0.0      0.0   100     16.4     9.9      60     17.2    0.30     -9     -9     -9      0     -9     0.0     0.0      0    -9.00      0.0      0.0      0.0   100     0.0     0.000    -9.9    0.000    0.000      -9        0.00    0.000    0.000     263.8    263.8    0.30    29.8     125.1      34.6      30.7      21.8      15.5       6.9    0.000     0.000     0.000     0.000     0.000    0.30     0.00    0.00      0   -9.90   -9.00        6.8       11.7       11.7       11.7       11.7       11.7       11.7       11.7       11.7       11.7       11.7       11.7        0.0        0.0        0.0        0.0        0.0        0.0        0.0        0.0        0.0        0.0        0.0        0.0     14.5      14.9      20.3      27.4      34.6    391.85
     4     7  2011     4     1     262.0     7.4      0.0    0.0    7.4    0.0      0.0      0.0   -9.90     15.6      9.3     60      0.0      0.0   100     15.6     9.3      60     17.7    0.30     -9     -9     -9      0     -9     0.0     0.0      0    -9.00      0.0      0.0      0.0   100     0.0     0.000    -9.9    0.000    0.000      -9        0.00    0.000    0.000     262.0    262.0    0.30    28.0     125.1      34.6      30.7      21.3      15.5       6.9    0.000     0.000     0.000     0.000     0.000    0.30     0.00    0.00      0   -9.90   -9.00        5.0       11.7       11.7       11.7       11.7       11.7       11.7       11.7       11.7       11.7       11.7       11.7        0.0        0.0        0.0        0.0        0.0        0.0        0.0        0.0        0.0        0.0        0.0        0.0      7.4      14.1      21.4      27.7      34.0    391.85
     5     7  2011     5     1     259.6     6.0      0.0    0.0    6.0    0.0      0.0      0.0   -9.90     16.8      8.4     50      0.0      0.0   100     16.8     8.4      50     16.5    0.32     -9     -9     -9      0     -9     0.0     0.0      0    -9.00      0.0      0.0      0.0   100     0.0     0.000    -9.9    0.000    0.000      -9        0.00    0.000    0.000     259.6    259.6    0.32    27.9     133.5      36.9      32.8      23.6      16.5       7.4    0.000     0.000     0.000     0.000     0.000    0.32     0.00    0.00      0   -9.90   -9.00        2.5       11.7       11.7       11.7       11.7       11.7       11.7       11.7       11.7       11.7       11.7       11.7        0.0        0.0        0.0        0.0        0.0        0.0        0.0        0.0        0.0        0.0        0.0        0.0      6.0      15.3      19.1      26.8      34.5    391.85
     6     7  2011     6     1     261.7    10.8      0.0    0.0   10.8    0.0      0.0      0.0   -9.90     14.8      8.7     59      0.0      0.0   100     14.8     8.7      59     16.5    0.36     -9     -9     -9      0     -9     0.0     0.0      0    -9.00      0.0      0.0      0.0   100     0.0     0.000    -9.9    0.000    0.000      -9        0.00    0.000    0.000     261.7    261.7    0.36    34.7     150.6      41.6      37.0      25.2      18.7       8.4    0.000     0.000     0.000     0.000     0.000    0.36     0.00    0.00      0   -9.90   -9.00        4.6       11.7       11.7       11.7       11.7       11.7       11.7       11.7       11.7       11.7       11.7       11.7        0.0        0.0        0.0        0.0        0.0        0.0        0.0        0.0        0.0        0.0        0.0        0.0     10.8      13.4      19.1      25.4      31.7    391.85
     7     7  2011     7     2     260.4     4.2      1.5    0.0    4.2    0.0      0.0      0.0   -9.90     16.9      6.8     40      0.1      0.1   100     17.0     6.9      41     16.7    0.40     -9      0      0      0      0     0.4     0.4      0     0.01      0.1      0.1      0.1   100    34.3     0.003    -9.9    0.000    0.000     100        0.00    0.000    0.000     260.4    260.4    0.40    37.8     166.4      46.0      46.0      29.6      29.6       9.3    0.000     0.000     0.000     0.000     0.000    0.40     0.00    0.00      0   -9.90   -9.00        9.6        9.6        9.7       11.7       11.7       11.7       11.7       11.7       11.7       11.7       11.7       11.7        0.0        0.0        0.0        0.0        0.0        0.0        0.0        0.0        0.0        0.0        0.0        0.0      4.2      15.4      19.4      27.1      34.9    391.85
     8     7  2011     8     2     259.7     3.4      4.7    0.0    3.4    0.0      0.0      0.0   -9.90     17.0      8.6     50      0.1      0.1   100     17.1     8.7      51     16.7    0.43     -9      0      0      0      0     0.5     0.5      0     0.01      0.1      0.1      0.1   100    34.3     0.006    -9.9    0.000    0.000     100        0.00    0.000    0.000     259.7    259.7    0.43    41.7     181.2      50.1      50.1      32.3      32.3      10.2    0.000     0.000     0.000     0.000     0.000    0.43     0.00    0.00      0   -9.90   -9.00        9.6        9.6        9.7       11.3       11.7       11.7       11.7       11.7       11.7       11.7       11.7       11.7        0.0        0.0        0.0        0.0        0.0        0.0        0.0        0.0        0.0        0.0        0.0        0.0      3.4      15.6      19.4      27.2      35.0    391.85
     9     7  2011     9     2     258.5     6.9      1.6    0.0    6.9    0.0      0.0      0.0   -9.90     16.5      9.5     57      0.2      0.2   100     16.7     9.7      58     18.2    0.47      0      0      0      0      0     0.6     0.6      0     0.01      0.2      0.2      0.2   100    34.3     0.010    -9.9    0.000    0.000     100        0.00    0.000    0.000     258.5    258.5    0.47    44.9     195.4      54.0      54.0      34.5      34.5      11.0    0.000     0.000     0.000     0.000     0.000    0.47     0.00    0.00      0   -9.90   -9.00        9.6        9.6        9.6       10.5       11.7       11.7       11.7       11.7       11.7       11.7       11.7       11.7        0.0        0.0        0.0        0.0        0.0        0.0        0.0        0.0        0.0        0.0        0.0        0.0      6.9      15.2      22.4      29.2      36.0    391.85
    10     7  2011    10     2     257.4     4.2      4.0    0.0    4.2    0.0      0.0      0.0   -9.90     16.2      9.0     56      0.2      0.2   100     16.4     9.2      56     16.9    0.50      0      0      0      0      0     0.7     0.7      0     0.01      0.2      0.2      0.2   100    34.3     0.014    -9.9    0.000    0.000     100        0.00    0.000    0.000     257.4    257.4    0.50    47.5     209.1      57.8      57.8      36.6      36.6      11.9    0.000     0.000     0.000     0.000     0.000    0.50     0.00    0.00      0   -9.90   -9.00        9.5        9.5        9.6        9.9       11.7       11.7       11.7       11.7       11.7       11.7       11.7       11.7        0.0        0.0        0.0        0.0        0.0        0.0        0.0        0.0        0.0        0.0        0.0        0.0      4.2      14.9      19.9      27.1      34.3    391.85
    11     7  2011    11     2     256.6     3.5      4.2    0.0    3.5    0.0      0.0      0.0   -9.90     15.5      8.3     54      0.2      0.2   100     15.7     8.5      54     17.0    0.53      0      0      0      0      0     0.8     0.8      0     0.02      0.2      0.2      0.2   100    34.3     0.019    -9.9    0.000    0.000     100        0.00    0.000    0.000     256.6    256.6    0.53    49.9     222.3      61.4      61.4      38.3      38.3      12.6    0.000     0.000     0.000     0.000     0.000    0.53     0.00    0.00      0   -9.90   -9.00        9.5        9.5        9.5        9.6       11.7       11.7       11.7       11.7       11.7       11.7       11.7       11.7        0.0        0.0        0.0        0.0        0.0        0.0        0.0        0.0        0.0        0.0        0.0        0.0      3.5      14.3      19.9      26.7      33.4    391.85
    12     7  2011    12     2     255.8     5.1      3.0    0.0    5.1    0.0      0.0      0.0   -9.90     14.5      8.7     60      0.2      0.2   100     14.8     9.0      61     17.9    0.56      0      0      0      0      0     1.0     1.0      0     0.02      0.2      0.2      0.2   100    34.3     0.025    -9.9    0.000    0.000     100        0.00    0.000    0.000     255.8    255.8    0.56    52.4     235.2      65.0      65.0      39.5      39.5      13.4    0.000     0.000     0.000     0.000     0.000    0.56     0.00    0.00      0   -9.90   -9.00        9.4        9.4        9.4        9.4       11.6       11.7       11.7       11.7       11.7       11.7       11.7       11.7        0.0        0.0        0.0        0.0        0.0        0.0        0.0        0.0        0.0        0.0        0.0        0.0      5.1      13.4      21.8      27.6      33.3    391.85
    13     7  2011    13     2     256.0     3.2      5.6    0.0    3.2    0.0      0.0      0.0   -9.90     16.2      8.3     51      0.3      0.3   100     16.5     8.7      52     17.8    0.59      0      0      0      0      0     1.2     1.2      0     0.02      0.3      0.3      0.3   100    34.3     0.032    -9.9    0.000    0.000     100        0.00    0.000    0.000     256.0    256.0    0.59    56.6     247.7      68.4      68.4      43.6      43.6      14.1    0.000     0.000     0.000     0.000     0.000    0.59     0.00    0.00      0   -9.90   -9.00        9.6        9.6        9.6        9.6       11.0       11.7       11.7       11.7       11.7       11.7       11.7       11.7        0.0        0.0        0.0        0.0        0.0        0.0        0.0        0.0        0.0        0.0        0.0        0.0      3.2      15.1      21.6      28.5      35.4    391.85
    14     7  2011    14     2     254.2     4.8      2.6    0.0    4.8    0.0      0.0      0.0   -9.90     14.8      8.9     60      0.3      0.3   100     15.1     9.2      61     17.2    0.62      0      0      0      0      0     1.4     1.4      0     0.02      0.3      0.3      0.3   100    34.3     0.041    -9.9    0.000    0.000     100        0.00    0.000    0.000     254.2    254.2    0.62    58.5     259.9      71.8      71.8      44.0      44.0      14.8    0.000     0.000     0.000     0.000     0.000    0.62     0.00    0.00      0   -9.90   -9.00        9.4        9.4        9.5        9.5       10.3       11.7       11.7       11.7       11.7       11.7       11.7       11.7        0.0        0.0        0.0        0.0        0.0        0.0        0.0        0.0        0.0        0.0        0.0        0.0      4.8      13.7      20.4      26.6      32.9    391.85
    15     7  2011    15     2     253.3     2.0      4.6    0.0    2.0    0.0      0.0      0.0   -9.90     14.6      7.1     48      0.4      0.4   100     15.0     7.5      50     17.3    0.65      1      0      0      0      0     1.6     1.6      0     0.03      0.4      0.4      0.4   100    34.3     0.051    -9.9    0.000    0.000     100        0.00    0.000    0.000     253.3    253.3    0.65    60.8     271.9      75.1      75.1      46.0      46.0      15.6    0.000     0.000     0.000     0.000     0.000    0.65     0.00    0.00      0   -9.90   -9.00        9.4        9.4        9.5        9.5        9.8       11.7       11.7       11.7       11.7       11.7       11.7       11.7        0.0        0.0        0.0        0.0        0.0        0.0        0.0        0.0        0.0        0.0        0.0        0.0      2.0      13.7      20.6      26.7      32.9    391.85
    16     7  2011    16     2     252.4     6.9      1.5    0.0    6.9    0.0      0.0      0.0   -9.90     13.8      8.9     65      0.4      0.4   100     14.2     9.3      66     17.9    0.67      0      0      0      0      0     1.9     1.9      0     0.03      0.4      0.4      0.4   100    34.3     0.062    -9.9    0.000    0.000     100        0.00    0.000    0.000     252.4    252.4    0.67    62.7     283.6      78.3      78.3      46.9      46.9      16.2    0.000     0.000     0.000     0.000     0.000    0.67     0.00    0.00      0   -9.90   -9.00        9.3        9.3        9.4        9.4        9.4       11.7       11.7       11.7       11.7       11.7       11.7       11.7        0.0        0.0        0.0        0.0        0.0        0.0        0.0        0.0        0.0        0.0        0.0        0.0      6.9      13.0      21.7      27.2      32.6    391.85
    17     7  2011    17     2     257.0    15.3      0.0    0.0   15.1    0.2      0.0      0.0   -9.90     14.5      9.9     69      0.5      0.5   100     15.0    10.5      70     16.9    0.70      0      0      0      0      0     2.3     2.3      0     0.04      0.5      0.5      0.5   100    34.3     0.076    -9.9    0.000    0.000     100        0.00    0.000    0.000     257.0    257.0    0.70    70.0     295.2      81.5      81.5      49.9      49.9      16.9    0.000     0.000     0.000     0.000     0.000    0.70     0.00    0.00      0   -9.90   -9.00       14.1        9.3        9.4        9.4        9.4       11.7       11.7       11.7       11.7       11.7       11.7       11.7        0.0        0.0        0.0        0.0        0.0        0.0        0.0        0.0        0.0        0.0        0.0        0.0     15.3      13.7      19.8      26.1      32.5    391.85
    18     7  2011    18     2     253.8     5.3      2.1    0.0    5.3    0.0      0.0      0.0   -9.90     16.5      9.9     60      0.7      0.7   100     17.3    10.7      62     16.5    0.73      0      0      0      0      0     2.7     2.7      0     0.05      0.7      0.7      0.7   100    34.3     0.092    -9.9    0.000    0.000     100        0.00    0.000    0.000     253.8    253.8    0.73    70.3     306.5      84.6      84.6      55.0      55.0      17.6    0.000     0.000     0.000     0.000     0.000    0.73     0.00    0.00      0   -9.90   -9.00        9.6        9.6        9.7        9.7        9.7       11.4       11.7       11.7       11.7       11.7       11.7       11.7        0.0        0.0        0.0        0.0        0.0        0.0        0.0        0.0        0.0        0.0        0.0        0.0      5.3      15.7      19.0      27.0      35.1    391.85
    19     7  2011    19     2     252.7     6.4      2.7    0.0    6.4    0.0      0.0      0.0   -9.90     16.2      9.4     58      0.9      0.9   100     17.0    10.3      60     16.3    0.75      0      0      0      0      0     3.2     3.2      0     0.06      0.9      0.9      0.9   100    34.3     0.112    -9.9    0.000    0.000     100        0.00    0.000    0.000     252.7    252.7    0.75    72.9     317.7      87.7      87.7      56.7      56.7      18.3    0.000     0.000     0.000     0.000     0.000    0.75     0.00    0.00      0   -9.90   -9.00        9.6        9.6        9.6        9.6        9.6       10.9       11.7       11.7       11.7       11.7       11.7       11.7        0.0        0.0        0.0        0.0        0.0        0.0        0.0        0.0        0.0        0.0        0.0        0.0      6.4      15.5      18.6      26.6      34.5    391.85
    20     7  2011    20     2     251.3     9.1      0.0    0.0    9.1    0.0      0.0      0.0   -9.90     14.6      9.5     65      0.9      0.9   100     15.6    10.4      67     16.1    0.78      0      0      0      0      0     3.7     3.7      0     0.07      0.9      0.9      0.9   100    34.3     0.134    -9.9    0.000    0.000     100        0.00    0.000    0.000     251.3    251.3    0.78    74.4     328.7      90.8      90.8      56.5      56.5      18.9    0.000     0.000     0.000     0.000     0.000    0.78     0.00    0.00      0   -9.90   -9.00        8.2        9.6        9.6        9.6        9.6       10.9       11.7       11.7       11.7       11.7       11.7       11.7        0.0        0.0        0.0        0.0        0.0        0.0        0.0        0.0        0.0        0.0        0.0        0.0      9.1      14.2      18.2      25.3      32.4    391.85
    21     7  2011    21     2     252.2    11.1      0.0    0.0   11.1    0.0      0.0      0.0   -9.90     13.9      9.2     66      1.0      1.0   100     15.0    10.2      68     17.3    0.81      0      0      0      0      0     4.4     4.4      0     0.08      1.0      1.0      1.0   100    34.3     0.160    -9.9    0.000    0.000     100        0.00    0.000    0.000     252.2    252.2    0.81    78.1     339.6      93.8      93.8      57.4      57.4      19.5    0.000     0.000     0.000     0.000     0.000    0.81     0.00    0.00      0   -9.90   -9.00        9.1        9.6        9.6        9.6        9.6       10.9       11.7       11.7       11.7       11.7       11.7       11.7        0.0        0.0        0.0        0.0        0.0        0.0        0.0        0.0        0.0        0.0        0.0        0.0     11.1      13.7      20.7      26.8      32.9    391.85
    22     7  2011    22     2     253.0    11.5      0.0    0.0   11.5    0.0      0.0      0.0   -9.90     13.8      9.5     69      1.2      1.2   100     15.0    10.7      71     17.2    0.83      0      0      0      0      0     5.2     5.2      0     0.09      1.2      1.2      1.2   100    34.3     0.191    -9.9    0.000    0.000     100        0.00    0.000    0.000     253.0    253.0    0.83    81.7     350.3      96.7      96.7      59.4      59.4      20.2    0.000     0.000     0.000     0.000     0.000    0.83     0.00    0.00      0   -9.90   -9.00       10.0        9.6        9.6        9.6        9.6       10.9       11.7       11.7       11.7       11.7       11.7       11.7        0.0        0.0        0.0        0.0        0.0        0.0        0.0        0.0        0.0        0.0        0.0        0.0     11.5      13.7      20.4      26.7      32.9    391.85
    23     7  2011    23     2     250.0     3.1      3.3    0.0    3.1    0.0      0.0      0.0   -9.90     14.6      7.9     54      1.6      1.6   100     16.2     9.4      58     16.6    0.86      0      0      0      0      0     6.1     6.1      0     0.11      1.6      1.6      1.6   100    34.3     0.227    -9.9    0.000    0.000     100        0.00    0.000    0.000     250.0    250.0    0.86    81.8     360.9      99.7      99.7      63.1      63.1      20.8    0.000     0.000     0.000     0.000     0.000    0.86     0.00    0.00      0   -9.90   -9.00        9.5        9.5        9.6        9.6        9.6        9.9       11.7       11.7       11.7       11.7       11.7       11.7        0.0        0.0        0.0        0.0        0.0        0.0        0.0        0.0        0.0        0.0        0.0        0.0      3.1      14.8      19.2      26.5      33.7    391.85
    24     7  2011    24     2     248.3     1.1      4.8    0.0    1.1    0.0      0.0      0.0   -9.90     13.2      5.9     45      1.7      1.7   100     14.9     7.6      51     17.5    0.88      5      0      0      0      0     7.1     7.1      0     0.12      1.7      1.7      1.7   100    34.3     0.270    -9.9    0.000    0.000     100        0.00    0.000    0.000     248.3    248.3    0.88    82.7     371.4     102.5     102.5      62.7      62.7      21.4    0.000     0.000     0.000     0.000     0.000    0.88     0.00    0.00      0   -9.90   -9.00        9.4        9.4        9.4        9.4        9.4        9.5       11.7       11.7       11.7       11.7       11.7       11.7        0.0        0.0        0.0        0.0        0.0        0.0        0.0        0.0        0.0        0.0        0.0        0.0      1.1      13.6      21.1      27.1      33.0    391.85
    25     7  2011    25     2     248.1     2.7      6.2    0.0    2.7    0.0      0.0      0.0   -9.90     12.8      7.3     57      1.9      1.9   100     14.8     9.2      62     17.3    0.91      0      0      0      0      0     8.4     8.4      0     0.14      1.9      1.9      1.9   100    34.3     0.319    -9.9    0.000    0.000     100        0.00    0.000    0.000     248.1    248.1    0.91    85.0     381.7     105.4     105.4      64.3      64.3      22.0    0.000     0.000     0.000     0.000     0.000    0.91     0.00    0.00      0   -9.90   -9.00        9.4        9.4        9.4        9.4        9.4        9.4       11.6       11.7       11.7       11.7       11.7       11.7        0.0        0.0        0.0        0.0        0.0        0.0        0.0        0.0        0.0        0.0        0.0        0.0      2.7      13.5      20.7      26.7      32.7    391.85
    26     7  2011    26     2     248.2     5.6      5.6    0.0    5.6    0.0      0.0      0.0   -9.90     13.2      8.6     65      2.4      2.4   100     15.6    11.0      71     17.2    0.93      0      0      0      0      0     9.9     9.9      0     0.17      2.4      2.4      2.4   100    34.3     0.377    -9.9    0.000    0.000     100        0.00    0.000    0.000     248.2    248.2    0.93    88.5     392.0     108.2     108.2      67.6      67.6      22.6    0.000     0.000     0.000     0.000     0.000    0.93     0.00    0.00      0   -9.90   -9.00        9.5        9.5        9.5        9.5        9.5        9.5       11.3       11.7       11.7       11.7       11.7       11.7        0.0        0.0        0.0        0.0        0.0        0.0        0.0        0.0        0.0        0.0        0.0        0.0      5.6      14.3      20.4      27.1      33.7    391.85
    27     7  2011    27     2     247.8     4.9      6.2    0.0    4.9    0.0      0.0      0.0   -9.90     13.3      8.5     64      2.9      2.9   100     16.2    11.5      71     16.3    0.95      0      0      0      0      0    11.7    11.7      0     0.20      2.9      2.9      2.9   100    34.3     0.444    -9.9    0.000    0.000     100        0.00    0.000    0.000     247.8    247.8    0.95    91.5     402.2     111.0     111.0      70.6      70.6      23.2    0.000     0.000     0.000     0.000     0.000    0.95     0.00    0.00      0   -9.90   -9.00        9.5        9.5        9.6        9.6        9.6        9.6       10.9       11.7       11.7       11.7       11.7       11.7        0.0        0.0        0.0        0.0        0.0        0.0        0.0        0.0        0.0        0.0        0.0        0.0      4.9      14.9      18.6      26.1      33.6    391.85
    28     7  2011    28     2     247.2     6.5      5.0    0.0    6.5    0.0      0.0      0.0   -9.90     13.1      8.6     65      3.5      3.5   100     16.6    12.1      73     16.7    0.98      0      0      0      0      0    13.8    13.8      0     0.23      3.5      3.5      3.5   100    34.3     0.523    -9.9    0.000    0.000      99        0.00    0.000    0.000     247.2    247.2    0.98    94.1     412.2     113.8     113.8      73.1      73.1      23.8    0.000     0.000     0.000     0.000     0.000    0.98     0.00    0.00      0   -9.90   -9.00        9.6        9.6        9.6        9.6        9.6        9.6       10.4       11.7       11.7       11.7       11.7       11.7        0.0        0.0        0.0        0.0        0.0        0.0        0.0        0.0        0.0        0.0        0.0        0.0      6.5      15.3      19.5      27.0      34.6    391.85
    29     7  2011    29     2     246.4     3.7      7.4    0.0    3.7    0.0      0.0      0.0   -9.90     12.5      7.8     62      4.1      4.1   100     16.6    11.9      72     15.5    1.00      0      0      0      0      0    16.3    16.3      0     0.27      4.1      4.1      4.1   100    34.3     0.614    -9.9    0.000    0.000      99        0.00    0.000    0.000     246.4    246.4    1.00    96.1     422.2     116.6     116.6      74.8      74.8      24.4    0.000     0.000     0.000     0.000     0.000    1.00     0.00    0.00      0   -9.90   -9.00        9.6        9.6        9.6        9.6        9.6        9.6       10.0       11.7       11.7       11.7       11.7       11.7        0.0        0.0        0.0        0.0        0.0        0.0        0.0        0.0        0.0        0.0        0.0        0.0      3.7      15.2      16.9      25.2      33.4    391.85
    30     7  2011    30     2     244.9     2.6      6.9    0.0    2.6    0.0      0.0      0.0   -9.90     11.1      6.7     60      4.4      4.4   100     15.5    11.1      71     17.6    1.02      0      0      0      0      0    19.2    19.2      0     0.31      4.4      4.4      4.4   100    34.3     0.720    -9.9    0.000    0.000      99        0.00    0.000    0.000     244.9    244.9    1.02    97.1     432.0     119.3     119.3      74.5      74.5      25.0    0.000     0.000     0.000     0.000     0.000    1.02     0.00    0.00      0   -9.90   -9.00        9.5        9.5        9.5        9.5        9.5        9.5        9.7       11.7       11.7       11.7       11.7       11.7        0.0        0.0        0.0        0.0        0.0        0.0        0.0        0.0        0.0        0.0        0.0        0.0      2.6      14.3      21.2      27.7      34.1    391.85
    31     7  2011    31     2     246.0     4.3     10.1    0.0    4.3    0.0      0.0      0.0   -9.90     11.2      7.8     69      5.5      5.5   100     16.8    13.3      80     16.6    1.05      0      0      0      0      0    22.7    22.7      0     0.36      5.5      5.5      5.5   100    34.3     0.842    -9.9    0.000    0.000      99        0.00    0.000    0.000     246.0    246.0    1.05   100.5     441.8     122.0     122.0      78.9      78.9      25.6    0.000     0.000     0.000     0.000     0.000    1.05     0.00    0.00      0   -9.90   -9.00        9.6        9.6        9.6        9.6        9.6        9.6        9.7       11.7       11.7       11.7       11.7       11.7        0.0        0.0        0.0        0.0        0.0        0.0        0.0        0.0        0.0        0.0        0.0        0.0      4.3      15.5      19.2      27.0      34.9    391.85
     1     8  2011    32     2     245.5     3.0      9.4    0.0    3.0    0.0      0.0      0.0   -9.90     10.1      6.6     66      6.2      6.2   100     16.3    12.9      79     16.6    1.07      0      0      0      0      0    26.7    26.7      0     0.41      6.2      6.2      6.2   100    34.3     0.983    -9.9    0.000    0.000      99        0.00    0.000    0.000     245.5    245.5    1.07   102.2     451.5     124.7     124.7      79.7      79.7      26.1    0.000     0.000     0.000     0.000     0.000    1.07     0.00    0.00      0   -9.90   -9.00        9.6        9.6        9.6        9.6        9.6        9.6        9.6       11.7       11.7       11.7       11.7       11.7        0.0        0.0        0.0        0.0        0.0        0.0        0.0        0.0        0.0        0.0        0.0        0.0      3.0      15.1      19.2      26.7      34.2    391.85
     2     8  2011    33     2     245.7     8.6      6.2    0.0    8.6    0.0      0.0      0.0   -9.90      9.2      7.4     81      7.2      7.2   100     16.4    14.7      89     17.8    1.09      0      0      0      0      0    31.5    31.5      0     0.47      7.2      7.2      7.2   100    34.3     1.145    -9.9    0.000    0.000      99        0.00    0.000    0.000     245.7    245.7    1.09   104.6     461.2     127.3     127.3      81.8      81.8      26.7    0.000     0.000     0.000     0.000     0.000    1.09     0.00    0.00      0   -9.90   -9.00        9.6        9.6        9.6        9.6        9.6        9.6        9.6       11.7       11.7       11.7       11.7       11.7        0.0        0.0        0.0        0.0        0.0        0.0        0.0        0.0        0.0        0.0        0.0        0.0      8.6      15.3      21.5      28.6      35.6    391.85
     3     8  2011    34     2     242.9     4.1      6.4    0.0    4.1    0.0      0.0      0.0   -9.90      7.0      6.1     87      7.1      7.1   100     14.1    13.2      94     17.5    1.12      0      0      0      0      0    37.2    37.2      0     0.54      7.1      7.1      7.1   100    34.3     1.330    -9.9    0.000    0.000      99        0.00    0.000    0.000     242.9    242.9    1.12   104.6     470.7     130.0     130.0      78.6      78.6      27.3    0.000     0.000     0.000     0.000     0.000    1.12     0.00    0.00      0   -9.90   -9.00        9.4        9.4        9.4        9.4        9.4        9.4        9.4       11.5       11.7       11.7       11.7       11.7        0.0        0.0        0.0        0.0        0.0        0.0        0.0        0.0        0.0        0.0        0.0        0.0      4.1      13.2      21.0      26.7      32.5    391.85
     4     8  2011    35     2     244.5     2.7     13.5    0.0    2.7    0.0      0.0      0.0   -9.90      6.9      5.4     78      9.3      9.3   100     16.2    14.7      91     16.9    1.14      0      0      0      0      0    43.9    43.9      0     0.61      9.3      9.3      9.3   100    34.3     1.540    -9.9    0.000    0.000      99        0.00    0.000    0.000     244.5    244.5    1.14   109.3     480.2     132.6     132.6      84.9      84.9      27.8    0.000     0.000     0.000     0.000     0.000    1.14     0.00    0.00      0   -9.90   -9.00        9.6        9.6        9.6        9.6        9.6        9.6        9.6       11.2       11.7       11.7       11.7       11.7        0.0        0.0        0.0        0.0        0.0        0.0        0.0        0.0        0.0        0.0        0.0        0.0      2.7      15.1      19.7      27.1      34.6    391.85
     5     8  2011    36     2     243.3     4.0     10.4    0.0    4.0    0.0      0.0      0.0   -9.90      5.6      5.2     94     10.3     10.3   100     15.9    15.5      98     16.5    1.16      0      0      0      0      0    51.4    51.4      0     0.69     10.3     10.3     10.3   100    34.3     1.777    -9.9    0.000    0.000      99        0.00    0.000    0.000     243.3    243.3    1.16   111.3     489.6     135.2     135.2      86.0      86.0      28.4    0.000     0.000     0.000     0.000     0.000    1.16     0.00    0.00      0   -9.90   -9.00        9.5        9.5        9.6        9.6        9.6        9.6        9.6       10.7       11.7       11.7       11.7       11.7        0.0        0.0        0.0        0.0        0.0        0.0        0.0        0.0        0.0        0.0        0.0        0.0      4.0      14.9      19.0      26.5      33.9    391.85
     6     8  2011    37     2     242.0    12.5      1.8    0.0   12.4    0.1      0.0      0.0   -9.90      4.5      4.5     99     11.0     11.0   100     15.5    15.5     100     17.2    1.18      0      0      0      0      0    58.1    58.1      0     0.75     11.0     11.0     11.0   100    34.3     2.035    -9.9    0.000    0.000      99        0.00    0.000    0.000     242.0    242.0    1.18   112.9     499.0     137.8     137.8      87.0      87.0      28.9    0.000     0.000     0.000     0.000     0.000    1.18     0.00    0.00      0   -9.90   -9.00        9.5        9.5        9.6        9.6        9.6        9.6        9.6       10.2       11.7       11.7       11.7       11.7        0.0        0.0        0.0        0.0        0.0        0.0        0.0        0.0        0.0        0.0        0.0        0.0     12.5      14.7      20.3      27.2      34.2    391.85
     7     8  2011    38     2     240.3     4.7      8.2    0.0    4.7    0.0      0.0      0.0   -9.90      3.5      3.5    100     11.1     11.1   100     14.6    14.6     100     18.2    1.20      0      0      0      0      0    63.7    63.7      0     0.80     11.1     11.1     11.1   100    34.3     2.309    -9.9    0.000    0.000      99        0.00    0.000    0.000     240.3    240.3    1.20   113.8     508.3     140.3     140.3      86.5      86.5      29.5    0.000     0.000     0.000     0.000     0.000    1.20     0.00    0.00      0   -9.90   -9.00        9.4        9.4        9.5        9.5        9.5        9.5        9.5        9.8       11.7       11.7       11.7       11.7        0.0        0.0        0.0        0.0        0.0        0.0        0.0        0.0        0.0        0.0        0.0        0.0      4.7      13.8      22.4      28.3      34.2    391.85
     8     8  2011    39     2     240.4     7.5      7.7    0.0    7.5    0.0      0.0      0.0   -9.90      3.1      3.1    100     12.0     12.0   100     15.1    15.1     100     17.1    1.23      0      0      0      0      0    68.5    68.5      0     0.84     12.0     12.0     12.0   100    34.3     2.598    -9.9    0.000    0.000      99        0.00    0.000    0.000     240.4    240.4    1.23   116.2     517.5     142.9     142.9      89.3      89.3      30.0    0.000     0.000     0.000     0.000     0.000    1.23     0.00    0.00      0   -9.90   -9.00        9.5        9.5        9.5        9.5        9.5        9.5        9.5        9.6       11.7       11.7       11.7       11.7        0.0        0.0        0.0        0.0        0.0        0.0        0.0        0.0        0.0        0.0        0.0        0.0      7.5      14.3      20.2      26.9      33.6    391.85
     9     8  2011    40     2     240.3     4.3     10.8    0.0    4.3    0.0      0.0      0.0   -9.90      2.6      2.6    100     12.6     12.6   100     15.1    15.1     100     17.1    1.25      0      0      0      0      0    72.6    72.6      0     0.87     12.6     12.6     12.6   100    34.3     2.897    -9.9    0.000    0.000      99        0.00    0.000    0.000     240.3    240.3    1.25   118.3     526.7     145.4     145.4      91.1      91.1      30.6    0.000     0.000     0.000     0.000     0.000    1.25     0.00    0.00      0   -9.90   -9.00        9.5        9.5        9.5        9.5        9.5        9.5        9.5        9.6       11.7       11.7       11.7       11.7        0.0        0.0        0.0        0.0        0.0        0.0        0.0        0.0        0.0        0.0        0.0        0.0      4.3      14.4      20.3      27.0      33.8    391.85
    10     8  2011    41     2     240.6     5.5     10.2    0.0    5.5    0.0      0.0      0.0   -9.90      2.2      2.2    100     13.2     13.2   100     15.4    15.4     100     16.5    1.27      0      0      0      0      0    76.0    76.0      0     0.90     13.2     13.2     13.2   100    34.3     3.205    -9.9    0.000    0.000      99        0.00    0.000    0.000     240.6    240.6    1.27   120.7     535.8     147.9     147.9      93.4      93.4      31.1    0.000     0.000     0.000     0.000     0.000    1.27     0.00    0.00      0   -9.90   -9.00        9.5        9.5        9.6        9.6        9.6        9.6        9.6        9.6       11.7       11.7       11.7       11.7        0.0        0.0        0.0        0.0        0.0        0.0        0.0        0.0        0.0        0.0        0.0        0.0      5.5      14.6      19.0      26.2      33.5    391.85
    11     8  2011    42     2     239.6     3.0     10.6    0.0    3.0    0.0      0.0      0.0   -9.90      1.8      1.8    100     12.8     12.8   100     14.6    14.6     100     17.8    1.29      0      0      0      0      0    79.0    79.0      0     0.92     12.8     12.8     12.8   100    34.3     3.521    -9.9    0.000    0.000      99        0.00    0.000    0.000     239.6    239.6    1.29   121.7     544.9     150.4     150.4      92.9      92.9      31.6    0.000     0.000     0.000     0.000     0.000    1.29     0.00    0.00      0   -9.90   -9.00        9.4        9.4        9.5        9.5        9.5        9.5        9.5        9.5       11.7       11.7       11.7       11.7        0.0        0.0        0.0        0.0        0.0        0.0        0.0        0.0        0.0        0.0        0.0        0.0      3.0      13.9      21.6      27.7      33.8    391.85
    12     8  2011    43     2     240.5     3.4     13.0    0.0    3.4    0.0      0.0      0.0   -9.90      1.6      1.6    100     13.8     13.8   100     15.5    15.5     100     16.9    1.31      0      0      0      0      0    81.4    81.4      0     0.94     13.8     13.8     13.8   100    34.3     3.843    -9.9    0.000    0.000      99        0.00    0.000    0.000     240.5    240.5    1.31   125.1     553.9     152.9     152.9      96.8      96.8      32.2    0.000     0.000     0.000     0.000     0.000    1.31     0.00    0.00      0   -9.90   -9.00        9.5        9.5        9.6        9.6        9.6        9.6        9.6        9.6       11.6       11.7       11.7       11.7        0.0        0.0        0.0        0.0        0.0        0.0        0.0        0.0        0.0        0.0        0.0        0.0      3.4      14.7      19.8      26.9      34.0    391.85
    13     8  2011    44     2     240.2    14.1      0.0    0.0   14.0    0.2      0.0      0.0   -9.90      1.3      1.3    100     13.0     13.0   100     14.3    14.3     100     16.4    1.33      0      0      0      0      0    83.5    83.5      0     0.95     13.0     13.0     13.0   100    34.3     4.170    -9.9    0.000    0.000      99        0.00    0.000    0.000     240.2    240.2    1.33   127.2     562.8     155.4     155.4      95.3      95.3      32.7    0.000     0.000     0.000     0.000     0.000    1.33     0.00    0.00      0   -9.90   -9.00       19.6        6.7        6.8        8.4        9.6        9.6        9.6        9.6       11.6       11.7       11.7       11.7        0.0        0.0        0.0        0.0        0.0        0.0        0.0        0.0        0.0        0.0        0.0        0.0     14.1      13.7      18.9      25.4      32.0    391.85
    14     8  2011    45     2     239.5     1.3     13.4    0.0    1.3    0.0      0.0      0.0   -9.90      1.2      1.2    100     14.2     14.2   100     15.4    15.4     100     16.6    1.35      0      0      0      0      0    85.3    85.3      0     0.97     14.2     14.2     14.2   100    34.3     4.501    -9.9    0.000    0.000      99        0.00    0.000    0.000     239.5    239.5    1.35   129.7     571.7     157.8     157.8      99.9      99.9      33.2    0.000     0.000     0.000     0.000     0.000    1.35     0.00    0.00      0   -9.90   -9.00        9.5        9.5        9.6        9.6        9.6        9.6        9.6        9.6       11.2       11.7       11.7       11.7        0.0        0.0        0.0        0.0        0.0        0.0        0.0        0.0        0.0        0.0        0.0        0.0      1.3      14.7      19.3      26.5      33.8    391.85
    15     8  2011    46     2     238.9     9.6      5.8    0.0    9.6    0.0      0.0      0.0   -9.90      1.1      1.1    100     14.8     14.8   100     15.9    15.9     100     16.4    1.37      0      0      0      0      0    86.8    86.8      0     0.98     14.8     14.8     14.8   100    34.3     4.836    -9.9    0.000    0.000      99        0.00    0.000    0.000     238.9    238.9    1.37   132.4     580.6     160.3     160.3     102.8     102.8      33.8    0.000     0.000     0.000     0.000     0.000    1.37     0.00    0.00      0   -9.90   -9.00        9.6        9.6        9.6        9.6        9.6        9.6        9.6        9.6       10.7       11.7       11.7       11.7        0.0        0.0        0.0        0.0        0.0        0.0        0.0        0.0        0.0        0.0        0.0        0.0      9.6      15.2      18.7      26.5      34.2    391.85
    16     8  2011    47     2     237.4    12.0      2.1    0.0   11.9    0.1      0.0      0.0   -9.90      0.9      0.9    100     14.6     14.6   100     15.6    15.6     100     16.2    1.40      0      0      0      0      0    88.1    88.1      0     0.99     14.6     14.6     14.6   100    34.3     5.174    -9.9    0.000    0.000      99        0.00    0.000    0.000     237.4    237.4    1.40   133.7     589.4     162.7     162.7     103.4     103.4      34.3    0.000     0.000     0.000     0.000     0.000    1.40     0.00    0.00      0   -9.90   -9.00        9.5        9.5        9.6        9.6        9.6        9.6        9.6        9.6       10.3       11.7       11.7       11.7        0.0        0.0        0.0        0.0        0.0        0.0        0.0        0.0        0.0        0.0        0.0        0.0     12.0      14.9      18.4      26.0      33.6    391.85
    17     8  2011    48     2     235.2     1.1     11.2    0.0    1.1    0.0      0.0      0.0   -9.90      0.7      0.7    100     13.8     13.8   100     14.6    14.6     100     17.2    1.42      5      0      0      0      0    89.1    89.1      0     0.99     13.8     13.8     13.8   100    34.3     5.515    -9.9    0.000    0.000      99        0.00    0.000    0.000     235.2    235.2    1.42   134.1     598.2     165.1     165.1     102.1     102.1      34.8    0.000     0.000     0.000     0.000     0.000    1.42     0.00    0.00      0   -9.90   -9.00        9.4        9.4        9.5        9.5        9.5        9.5        9.5        9.5        9.9       11.7       11.7       11.7        0.0        0.0        0.0        0.0        0.0        0.0        0.0        0.0        0.0        0.0        0.0        0.0      1.1      13.9      20.5      26.9      33.3    391.85
    18     8  2011    49     2     236.8     3.0     14.6    0.0    3.0    0.0      0.0      0.0   -9.90      0.7      0.7    100     15.3     15.3   100     16.1    16.1     100     16.2    1.44      0      0      0      0      0    90.1    90.1      0     1.00     15.3     15.3     15.3   100    34.3     5.857    -9.9    0.000    0.000      99        0.00    0.000    0.000     236.8    236.8    1.44   137.9     606.9     167.5     167.5     108.0     108.0      35.3    0.000     0.000     0.000     0.000     0.000    1.44     0.00    0.00      0   -9.90   -9.00        9.6        9.6        9.6        9.6        9.6        9.6        9.6        9.6        9.8       11.7       11.7       11.7        0.0        0.0        0.0        0.0        0.0        0.0        0.0        0.0        0.0        0.0        0.0        0.0      3.0      15.3      18.5      26.4      34.4    391.85
    19     8  2011    50     2     233.7     6.3      4.7    0.0    6.3    0.0      0.0      0.0   -9.90      0.6      0.6    100     13.6     13.6   100     14.1    14.1     100     17.4    1.46      0      0      0      0      0    90.8    90.8      0     1.00     13.6     13.6     13.6   100    34.3     6.201    -9.9    0.000    0.000      99        0.00    0.000    0.000     233.7    233.7    1.46   137.0     615.5     169.9     169.9     103.8     103.8      35.8    0.000     0.000     0.000     0.000     0.000    1.46     0.00    0.00      0   -9.90   -9.00        9.4        9.4        9.4        9.4        9.4        9.4        9.4        9.4        9.6       11.7       11.7       11.7        0.0        0.0        0.0        0.0        0.0        0.0        0.0        0.0        0.0        0.0        0.0        0.0      6.3      13.5      20.7      26.8      32.9    391.85
    20     8  2011    51     2     236.3     1.4     17.1    0.0    1.4    0.0      0.0      0.0   -9.90      0.6      0.6    100     15.4     15.4   100     16.0    16.0     100     16.7    1.48      4      0      0      0      0    91.5    91.5      0     1.01     15.4     15.4     15.4   100    34.3     6.547    -9.9    0.000    0.000      99        0.00    0.000    0.000     236.3    236.3    1.48   141.5     624.2     172.3     172.3     110.8     110.8      36.3    0.000     0.000     0.000     0.000     0.000    1.48     0.00    0.00      0   -9.90   -9.00        9.6        9.6        9.6        9.6        9.6        9.6        9.6        9.6        9.6       11.7       11.7       11.7        0.0        0.0        0.0        0.0        0.0        0.0        0.0        0.0        0.0        0.0        0.0        0.0      1.4      15.3      19.3      27.0      34.7    391.85
    21     8  2011    52     2     234.5     2.8     10.2    0.0    2.8    0.0      0.0      0.0   -9.90      0.5      0.5    100     14.3     14.3   100     14.8    14.8     100     17.1    1.50      0      0      0      0      0    92.0    92.0      0     1.01     14.3     14.3     14.3   100    34.3     6.894    -9.9    0.000    0.000      99        0.00    0.000    0.000     234.5    234.5    1.50   141.7     632.8     174.7     174.7     108.7     108.7      36.8    0.000     0.000     0.000     0.000     0.000    1.50     0.00    0.00      0   -9.90   -9.00        9.5        9.5        9.5        9.5        9.5        9.5        9.5        9.5        9.5       11.7       11.7       11.7        0.0        0.0        0.0        0.0        0.0        0.0        0.0        0.0        0.0        0.0        0.0        0.0      2.8      14.1      20.2      26.9      33.5    391.85
    22     8  2011    53     2     234.4    10.0      4.6    0.0   10.0    0.0      0.0      0.0   -9.90      0.4      0.4    100     14.3     14.3   100     14.7    14.7     100     16.8    1.52      0      0      0      0      0    92.5    92.5      0     1.01     14.3     14.3     14.3   100    34.3     7.242    -9.9    0.000    0.000      99        0.00    0.000    0.000     234.4    234.4    1.52   143.5     641.3     177.0     177.0     110.0     110.0      37.3    0.000     0.000     0.000     0.000     0.000    1.52     0.00    0.00      0   -9.90   -9.00        9.4        9.4        9.5        9.5        9.5        9.5        9.5        9.5        9.5       11.7       11.7       11.7        0.0        0.0        0.0        0.0        0.0        0.0        0.0        0.0        0.0        0.0        0.0        0.0     10.0      14.1      19.7      26.4      33.1    391.85
    23     8  2011    54     2     235.3     3.0     13.2    0.0    3.0    0.0      0.0      0.0   -9.90      0.4      0.4    100     14.9     14.9   100     15.3    15.3     100     16.8    1.54      0      0      0      0      0    92.9    92.9      0     1.02     14.9     14.9     14.9   100    34.3     7.591    -9.9    0.000    0.000      99        0.00    0.000    0.000     235.3    235.3    1.54   146.3     649.8     179.4     179.4     113.3     113.3      37.8    0.000     0.000     0.000     0.000     0.000    1.54     0.00    0.00      0   -9.90   -9.00        9.5        9.5        9.6        9.6        9.6        9.6        9.6        9.6        9.5       11.7       11.7       11.7        0.0        0.0        0.0        0.0        0.0        0.0        0.0        0.0        0.0        0.0        0.0        0.0      3.0      14.6      19.7      26.8      34.0    391.85
    24     8  2011    55     2     233.1     4.2      7.6    0.0    4.2    0.0      0.0      0.0   -9.90      0.3      0.3    100     13.7     13.7   100     14.0    14.0     100     16.9    1.56      0      0      0      0      0    93.2    93.2      0     1.02     13.7     13.7     13.7   100    34.3     7.941    -9.9    0.000    0.000      99        0.00    0.000    0.000     233.1    233.1    1.56   146.4     658.3     181.7     181.7     110.7     110.7      38.3    0.000     0.000     0.000     0.000     0.000    1.56     0.00    0.00      0   -9.90   -9.00        9.4        9.4        9.4        9.4        9.4        9.4        9.4        9.4        9.4       11.6       11.7       11.7        0.0        0.0        0.0        0.0        0.0        0.0        0.0        0.0        0.0        0.0        0.0        0.0      4.2      13.4      19.7      26.0      32.2    391.85
    25     8  2011    56     3     235.7     1.8     16.9    0.0    1.8    0.0      0.0      0.0   -9.90      0.4      0.4    100     15.7     15.7   100     16.0    16.0     100     16.0    1.58      2      0      0      0      0    93.5    93.5      0     1.02     15.7     15.7     15.7   100    34.3     8.291    -9.9    0.000    0.000      99        0.00    0.000    0.000     235.7    235.7    1.58   151.8     666.7     184.0     184.0     118.6     118.6      38.8    0.000     0.000     0.000     0.000     0.000    1.58     0.00    0.00      0   -9.90   -9.00        9.6        9.6        9.6        9.6        9.6        9.6        9.6        9.6        9.6       11.4       11.7       11.7        0.0        0.0        0.0        0.0        0.0        0.0        0.0        0.0        0.0        0.0        0.0        0.0      1.8      15.3      18.0      26.1      34.2    391.85
    26     8  2011    57     3     235.9    15.0      0.0    0.0   14.8    0.2      0.0      0.0   -9.90      0.3      0.3    100     14.2     14.2   100     14.5    14.5     100     17.9    1.60      0      0      0      0      0    93.7    93.7      0     1.02     14.2     14.2     14.2   100    34.3     8.642    -9.9    0.000    0.000      99        0.00    0.000    0.000     235.9    235.9    1.60   154.3     675.1     186.4     186.4     115.2     115.2      39.3    0.000     0.000     0.000     0.000     0.000    1.60     0.00    0.00      0   -9.90   -9.00       21.5        6.7        6.8        7.6        9.6        9.6        9.6        9.6        9.6       11.4       11.7       11.7        0.0        0.0        0.0        0.0        0.0        0.0        0.0        0.0        0.0        0.0        0.0        0.0     15.0      13.9      21.8      28.0      34.1    391.85
    27     8  2011    58     3     233.7     6.3      7.0    0.0    6.3    0.0      0.0      0.0   -9.90      0.3      0.3    100     15.2     15.2   100     15.5    15.5     100     16.5    1.62      0      0      0      0      0    93.8    93.8      0     1.02     15.2     15.2     15.2   100    34.3     8.993     1.5    0.136    0.151      99        0.02    0.000    0.000     233.7    233.7    1.62   155.2     683.5     188.7     188.7     119.9     119.9      39.8    0.000     0.000     0.000     0.000     0.000    1.62     0.00    0.00      0   -9.90   -9.00        9.5        9.5        9.6        9.6        9.6        9.6        9.6        9.6        9.6       10.9       11.7       11.7        0.0        0.0        0.0        0.0        0.0        0.0        0.0        0.0        0.0        0.0        0.0        0.0      6.3      14.8      19.0      26.5      34.0    391.85
    28     8  2011    59     3     231.6     3.0      9.8    0.0    3.0    0.0      0.0      0.0   -9.90      0.3      0.3    100     14.7     14.7   100     15.0    15.0     100     17.1    1.64      0      0      0      0      0    94.0    94.0      0     1.02     14.7     14.7     14.7   100    34.3     9.345     1.8    0.173    0.192      99        0.02    0.000    0.000     231.6    231.6    1.64   156.1     691.8     191.0     191.0     119.6     119.6      40.3    0.000     0.000     0.000     0.000     0.000    1.64     0.00    0.00      0   -9.90   -9.00        9.5        9.5        9.5        9.5        9.5        9.5        9.5        9.5        9.5       10.4       11.7       11.7        0.0        0.0        0.0        0.0        0.0        0.0        0.0        0.0        0.0        0.0        0.0        0.0      3.0      14.3      20.1      27.0      33.9    391.85
    29     8  2011    60     3     232.8    15.9      0.0    0.0   15.6    0.3      0.0      0.0   -9.90      0.3      0.3    100     14.1     14.1   100     14.4    14.4     100     17.0    1.66      0      0      0      0      0    94.1    94.1      0     1.03     14.1     14.1     14.1   100    34.3     9.696     2.3    0.219    0.243      99        0.03    0.000    0.000     232.8    232.8    1.66   159.3     700.1     193.3     193.3     119.1     119.1      40.8    0.000     0.000     0.000     0.000     0.000    1.66     0.00    0.00      0   -9.90   -9.00       22.3        6.6        6.7        7.6        9.5        9.5        9.5        9.5        9.5       10.4       11.7       11.7        0.0        0.0        0.0        0.0        0.0        0.0        0.0        0.0        0.0        0.0        0.0        0.0     15.9      13.8      20.0      26.5      33.0    391.85
    30     8  2011    61     3     230.0     3.8      8.0    0.0    3.8    0.0      0.0      0.0   -9.90      0.1      0.1    100     14.5     14.5   100     14.7    14.7     100     17.6    1.68      0      0      0      0      0    95.3    95.3      0     1.03     14.5     14.5     14.5   100    34.3    10.051     2.8    0.277    0.308      99        0.04    0.000    0.000     230.0    230.0    1.68   159.1     708.4     195.5     195.5     121.5     121.5      41.3    0.000     0.000     0.000     0.000     0.000    1.68     0.00    0.00      0   -9.90   -9.00        9.4        9.4        9.5        9.5        9.5        9.5        9.5        9.5        9.5       10.0       11.7       11.7        0.0        0.0        0.0        0.0        0.0        0.0        0.0        0.0        0.0        0.0        0.0        0.0      3.8      14.1      21.1      27.6      34.0    391.85
    31     8  2011    62     3     231.0     4.5     12.0    0.0    4.5    0.0      0.0      0.0   -9.90      0.1      0.1    100     15.5     15.5   100     15.6    15.6     100     17.5    1.70     -9      0      0      0      0    95.4    95.4      0     1.03     15.5     15.5     15.5   100    34.3    10.405     3.4    0.349    0.388      99        0.05    0.000    0.000     231.0    231.0    1.70   162.2     716.6     197.8     197.8     126.2     126.2      41.8    0.000     0.000     0.000     0.000     0.000    1.70     0.00    0.00      0   -9.90   -9.00        9.5        9.5        9.6        9.6        9.6        9.6        9.6        9.6        9.6        9.7       11.7       11.7        0.0        0.0        0.0        0.0        0.0        0.0        0.0        0.0        0.0        0.0        0.0        0.0      4.5      15.0      21.0      28.2      35.4    391.85
     1     9  2011    63     3     229.5     6.5      6.8    0.0    6.5    0.0      0.0      0.0   -9.90      0.1      0.1    100     14.7     14.7   100     14.9    14.9     100     17.0    1.71     -9      0      0      0      0    95.5    95.5      0     1.03     14.7     14.7     14.7   100    34.3    10.758     4.1    0.438    0.487      99        0.06    0.000    0.000     229.5    229.5    1.71   162.8     724.8     200.1     200.1     125.2     125.2      42.3    0.000     0.000     0.000     0.000     0.000    1.71     0.00    0.00      0   -9.90   -9.00        9.5        9.5        9.5        9.5        9.5        9.5        9.5        9.5        9.5        9.6       11.7       11.7        0.0        0.0        0.0        0.0        0.0        0.0        0.0        0.0        0.0        0.0        0.0        0.0      6.5      14.3      20.0      26.9      33.9    391.85
     2     9  2011    64     3     230.5    11.0      5.5    0.0   10.9    0.0      0.0      0.0   -9.90      0.1      0.1    100     15.3     15.3   100     15.5    15.5     100     17.5    1.73     -9      0      0      0      0    95.6    95.6      0     1.03     15.3     15.3     15.3   100    34.3    11.110     4.9    0.548    0.609      99        0.07    0.000    0.000     230.5    230.5    1.73   165.6     732.9     202.3     202.3     128.9     128.9      42.7    0.000     0.000     0.000     0.000     0.000    1.73     0.00    0.00      0   -9.90   -9.00        9.5        9.5        9.6        9.6        9.6        9.6        9.6        9.6        9.6        9.6       11.7       11.7        0.0        0.0        0.0        0.0        0.0        0.0        0.0        0.0        0.0        0.0        0.0        0.0     11.0      14.9      20.9      28.1      35.3    391.85
     3     9  2011    65     3     232.8    17.8      0.0    0.0   17.4    0.4      0.0      0.0   -9.90      0.1      0.1    100     14.9     14.9   100     15.0    15.0     100     17.7    1.75     -9      0      0      0      0    95.6    95.6      0     1.02     14.9     14.9     14.9   100    34.3    11.461     5.9    0.681    0.756     100        0.08    0.000    0.000     232.8    232.8    1.75   169.8     741.1     204.6     204.6     128.9     128.9      43.2    0.000     0.000     0.000     0.000     0.000    1.75     0.00    0.00      0   -9.90   -9.00       24.3        6.7        6.8        7.1        9.6        9.6        9.6        9.6        9.6        9.6       11.7       11.7        0.0        0.0        0.0        0.0        0.0        0.0        0.0        0.0        0.0        0.0        0.0        0.0     17.8      14.6      21.3      28.1      35.0    391.85
     4     9  2011    66     3     228.0     5.5      3.7    0.0    5.5    0.0      0.0      0.0   -9.90      0.1      0.1    100     13.9     13.9   100     14.0    14.0     100     17.5    1.77     -9      0      0      0      0    95.7    95.7      0     1.02     13.9     13.9     13.9   100    34.3    11.812     7.1    0.841    0.935     100        0.10    0.000    0.000     228.0    228.0    1.77   166.8     749.2     206.8     206.8     126.8     126.8      43.7    0.000     0.000     0.000     0.000     0.000    1.77     0.00    0.00      0   -9.90   -9.00        9.4        9.4        9.4        9.4        9.4        9.4        9.4        9.4        9.4        9.5       11.7       11.7        0.0        0.0        0.0        0.0        0.0        0.0        0.0        0.0        0.0        0.0        0.0        0.0      5.5      13.6      21.1      27.3      33.5    391.85
     5     9  2011    67     3     230.2     1.5     15.9    0.0    1.5    0.0      0.0      0.0   -9.90      0.1      0.1    100     15.1     15.1   100     15.2    15.2     100     16.2    1.79     -9      0      0      0      0    95.7    95.7      0     1.02     15.1     15.1     15.1   100    34.3    12.161     8.5    1.033    1.148     100        0.12    0.000    0.000     230.2    230.2    1.79   170.8     757.2     209.0     209.0     132.6     132.6      44.2    0.000     0.000     0.000     0.000     0.000    1.79     0.00    0.00      0   -9.90   -9.00        9.5        9.5        9.6        9.6        9.6        9.6        9.6        9.6        9.6        9.6       11.7       11.7        0.0        0.0        0.0        0.0        0.0        0.0        0.0        0.0        0.0        0.0        0.0        0.0      1.5      14.8      18.5      26.2      33.9    391.85
     6     9  2011    68     3     227.2     6.0      4.8    0.0    6.0    0.0      0.0      0.0   -9.90      0.1      0.1    100     13.6     13.6   100     13.7    13.7     100     17.0    1.81     -9      0      0      0      0    95.8    95.8      0     1.02     13.6     13.6     13.6   100    34.3    12.510    10.0    1.253    1.392     100        0.15    0.000    0.000     227.2    227.2    1.81   170.1     765.3     211.2     211.2     128.6     128.6      44.6    0.000     0.000     0.000     0.000     0.000    1.81     0.00    0.00      0   -9.90   -9.00        9.4        9.4        9.4        9.4        9.4        9.4        9.4        9.4        9.4        9.4       11.6       11.7        0.0        0.0        0.0        0.0        0.0        0.0        0.0        0.0        0.0        0.0        0.0        0.0      6.0      13.4      20.1      26.4      32.7    391.85
     7     9  2011    69     4     230.2     3.9     14.6    0.0    3.9    0.0      0.0      0.0   -9.90      0.1      0.1    100     15.4     15.4   100     15.5    15.5     100     16.4    1.83     -9      0      0      0      0    95.8    95.8      0     1.01     15.4     15.4     15.4   100    34.3    12.858    11.5    1.484    1.649     100        0.17    0.000    0.000     230.2    230.2    1.83   175.8     773.3     213.5     213.5     137.1     137.1      45.1    0.000     0.000     0.000     0.000     0.000    1.83     0.00    0.00      0   -9.90   -9.00        9.6        9.6        9.6        9.6        9.6        9.6        9.6        9.6        9.6        9.6       11.4       11.7        0.0        0.0        0.0        0.0        0.0        0.0        0.0        0.0        0.0        0.0        0.0        0.0      3.9      15.2      18.8      26.8      34.8    391.85
     8     9  2011    70     4     228.8    10.3      3.5    0.0   10.3    0.0      0.0      0.0   -9.90      0.1      0.1    100     15.1     15.1   100     15.2    15.2     100     16.5    1.85     -9      0      0      0      0    95.8    95.8      0     1.01     15.1     15.1     15.1   100    34.3    13.205    13.1    1.725    1.917     100        0.20    0.000    0.000     228.8    228.8    1.85   177.2     781.3     215.7     215.7     137.3     137.3      45.6    0.000     0.000     0.000     0.000     0.000    1.85     0.00    0.00      0   -9.90   -9.00        9.5        9.5        9.6        9.6        9.6        9.6        9.6        9.6        9.6        9.6       11.0       11.7        0.0        0.0        0.0        0.0        0.0        0.0        0.0        0.0        0.0        0.0        0.0        0.0     10.3      14.9      19.1      26.8      34.5    391.85
     9     9  2011    71     4     226.4     7.6      4.5    0.0    7.6    0.0      0.0      0.0   -9.90      0.1      0.1    100     14.3     14.3   100     14.4    14.4     100     16.9    1.87     -9      0      0      0      0    95.9    95.9      0     1.01     14.3     14.3     14.3   100    34.3    13.551    14.6    1.977    2.197     100        0.22    0.000    0.000     226.4    226.4    1.87   177.6     789.2     217.9     217.9     135.9     135.9      46.1    0.000     0.000     0.000     0.000     0.000    1.87     0.00    0.00      0   -9.90   -9.00        9.5        9.5        9.5        9.5        9.5        9.5        9.5        9.5        9.5        9.5       10.6       11.7        0.0        0.0        0.0        0.0        0.0        0.0        0.0        0.0        0.0        0.0        0.0        0.0      7.6      14.2      19.9      26.9      33.9    391.85
    10     9  2011    72     4     224.9     5.2      7.5    0.0    5.2    0.0      0.0      0.0   -9.90      0.1      0.1    100     14.0     14.0   100     14.1    14.1     100     17.2    1.89     -9      0      0      0      0    95.9    95.9      0     1.01     14.0     14.0     14.0   100    34.3    13.896    16.1    2.239    2.488     100        0.25    0.000    0.000     224.9    224.9    1.89   178.8     797.2     220.0     220.0     136.2     136.2      46.5    0.000     0.000     0.000     0.000     0.000    1.89     0.00    0.00      0   -9.90   -9.00        9.4        9.4        9.5        9.5        9.5        9.5        9.5        9.5        9.5        9.5       10.2       11.7        0.0        0.0        0.0        0.0        0.0        0.0        0.0        0.0        0.0        0.0        0.0        0.0      5.2      13.9      20.4      27.1      33.8    391.85
    11     9  2011    73     4     227.3     7.7     10.3    0.0    7.7    0.0      0.0      0.0   -9.90      0.1      0.1    100     15.5     15.5   100     15.6    15.6     100     17.1    1.90     -9      0      0      0      0    95.9    95.9      0     1.00     15.5     15.5     15.5   100    34.3    14.240    17.6    2.512    2.791     100        0.27    0.000    0.000     227.3    227.3    1.90   183.4     805.1     222.2     222.2     143.9     143.9      47.0    0.000     0.000     0.000     0.000     0.000    1.90     0.00    0.00      0   -9.90   -9.00        9.6        9.6        9.6        9.6        9.6        9.6        9.6        9.6        9.6        9.6       10.0       11.7        0.0        0.0        0.0        0.0        0.0        0.0        0.0        0.0        0.0        0.0        0.0        0.0      7.7      15.5      20.2      28.1      36.0    391.85
    12     9  2011    74     4     223.0     9.3      0.2    0.0    9.3    0.0      0.0      0.0   -9.90      0.1      0.1    100     13.6     13.6   100     13.7    13.7     100     17.6    1.92     -9      0      0      0      0    95.9    95.9      0     1.00     13.6     13.6     13.6   100    34.3    14.583    19.2    2.794    3.105     100        0.30    0.000    0.000     223.0    223.0    1.92   181.3     813.0     224.4     224.4     137.6     137.6      47.5    0.000     0.000     0.000     0.000     0.000    1.92     0.00    0.00      0   -9.90   -9.00        9.4        9.4        9.4        9.4        9.4        9.4        9.4        9.4        9.4        9.4        9.7       11.7        0.0        0.0        0.0        0.0        0.0        0.0        0.0        0.0        0.0        0.0        0.0        0.0      9.3      13.6      21.3      27.6      33.9    391.85
    13     9  2011    75     4     234.6    26.9      0.0    0.0   25.2    1.7      0.0      0.0   -9.90      0.1      0.1    100     13.4     13.4   100     13.5    13.5     100     16.6    1.94     -9      0      0      0      0    95.9    95.9      0     1.00     13.4     13.4     13.4   100    34.3    14.925    20.7    3.087    3.430     100        0.32    0.000    0.000     234.6    234.6    1.94   194.8     820.8     226.6     226.6     138.3     138.3      47.9    0.000     0.000     0.000     0.000     0.000    1.94     0.00    0.00      0   -9.90   -9.00       32.1        6.5        6.6        7.9        9.4        9.4        9.4        9.4        9.4        9.4        9.7       11.7        0.0        0.0        0.0        0.0        0.0        0.0        0.0        0.0        0.0        0.0        0.0        0.0     26.9      13.5      19.1      25.8      32.5    391.85
    14     9  2011    76     4     226.4     6.8      0.0    0.0    6.8    0.0      0.0      0.0   -9.90      0.2      0.2    100     14.9     14.9   100     15.0    15.0     100     16.5    1.96     -9      0     -9      0      0    95.3    95.3      0     0.98     14.9     14.9     14.9   100    34.3    15.263    22.2    3.390    3.766     100        0.35    0.000    0.000     226.4    226.4    1.96   188.3     828.6     228.7     228.7     146.4     146.4      48.4    0.000     0.000     0.000     0.000     0.000    1.96     0.00    0.00      0   -9.90   -9.00       16.5        9.7        9.3        6.9        9.4        9.4        9.4        9.4        9.4        9.4        9.7       11.7        0.0        0.0        0.0        0.0        0.0        0.0        0.0        0.0        0.0        0.0        0.0        0.0      6.8      15.1      19.0      27.0      35.0    391.85
    15     9  2011    77     4     224.2     2.7      9.2    0.0    2.7    0.0      0.0      0.0   -9.90      0.2      0.2    100     14.0     14.0   100     14.2    14.2     100     17.0    1.98     -9      0     -9      0      0    94.6    94.6      0     0.97     14.0     14.0     14.0   100    34.3    15.596    23.7    3.701    4.113     100        0.38    0.000    0.000     224.2    224.2    1.98   188.0     836.4     230.9     230.9     144.9     144.9      48.8    0.000     0.000     0.000     0.000     0.000    1.98     0.00    0.00      0   -9.90   -9.00        9.5        9.5        9.5        9.5        9.5        9.5        9.5        9.5        9.5        9.5        9.6       11.7        0.0        0.0        0.0        0.0        0.0        0.0        0.0        0.0        0.0        0.0        0.0        0.0      2.7      14.4      20.0      27.2      34.5    391.85
    16     9  2011    78     4     222.9    10.4      0.0    0.0   10.4    0.0      0.0      0.0   -9.90      0.2      0.2    100     11.4     11.4   100     11.6    11.6     100     17.9    2.00     -9      0     -9      0      0    93.9    93.9      0     0.96     11.4     11.4     11.4   100    34.3    15.924    25.3    4.022    4.469     100        0.41    0.000    0.000     222.9    222.9    2.00   188.5     844.2     233.0     233.0     135.6     135.6      49.3    0.000     0.000     0.000     0.000     0.000    2.00     0.00    0.00      0   -9.90   -9.00       16.9        6.6        6.7        9.4        9.5        9.5        9.5        9.5        9.5        9.5        9.6       11.7        0.0        0.0        0.0        0.0        0.0        0.0        0.0        0.0        0.0        0.0        0.0        0.0     10.4      11.9      21.8      26.8      31.9    391.85
    17     9  2011    79     4     224.3     3.0     12.4    0.0    3.0    0.0      0.0      0.0   -9.90      0.4      0.4    100     13.6     13.6   100     14.0    14.0     100     16.2    2.01     -9      0     -9      0      0    93.0    93.0      0     0.94     13.6     13.6     13.6   100    34.3    16.246    26.8    4.351    4.834     100        0.43    0.000    0.000     224.3    224.3    2.01   191.7     852.0     235.2     235.2     148.1     148.1      49.8    0.000     0.000     0.000     0.000     0.000    2.01     0.00    0.00      0   -9.90   -9.00        9.5        9.5        9.5        9.5        9.5        9.5        9.5        9.5        9.5        9.5        9.5       11.7        0.0        0.0        0.0        0.0        0.0        0.0        0.0        0.0        0.0        0.0        0.0        0.0      3.0      14.5      18.4      26.2      34.0    391.85
    18     9  2011    80     4     225.4     7.1      8.3    0.0    7.1    0.0      0.0      0.0   -9.90      0.5      0.5    100     13.8     13.8   100     14.3    14.3     100     16.2    2.03     -9      0     -9      0      0    92.0    92.0      0     0.92     13.8     13.8     13.8   100    34.3    16.561    28.3    4.688    5.208     100        0.46    0.000    0.000     225.4    225.4    2.03   194.5     859.7     237.3     237.3     151.6     151.6      50.2    0.000     0.000     0.000     0.000     0.000    2.03     0.00    0.00      0   -9.90   -9.00        9.5        9.5        9.6        9.6        9.6        9.6        9.6        9.6        9.6        9.6        9.6       11.7        0.0        0.0        0.0        0.0        0.0        0.0        0.0        0.0        0.0        0.0        0.0        0.0      7.1      15.0      18.4      26.6      34.8    391.85
    19     9  2011    81     4     232.9    21.6      0.0    0.0   20.7    0.9      0.0      0.0   -9.90      0.6      0.6    100     12.6     12.6   100     13.2    13.2     100     17.0    2.05     -9      0     -9      0      0    90.9    90.9      0     0.90     12.6     12.6     12.6   100    34.3    16.869    29.8    5.032    5.591     100        0.49    0.000    0.000     232.9    232.9    2.05   203.7     867.4     239.4     239.4     148.6     148.6      50.7    0.000     0.000     0.000     0.000     0.000    2.05     0.00    0.00      0   -9.90   -9.00       27.2        6.7        6.8        8.6        9.6        9.6        9.6        9.6        9.6        9.6        9.6       11.7        0.0        0.0        0.0        0.0        0.0        0.0        0.0        0.0        0.0        0.0        0.0        0.0     21.6      14.0      20.0      27.1      34.1    391.85
    20     9  2011    82     4     222.6     1.9      0.0    0.0    1.9    0.0      0.0      0.0   -9.90      0.6      0.6    100     11.7     11.7   100     12.3    12.3     100     17.2    2.07     -9      0     -9      0      0    89.6    89.6      0     0.88     11.7     11.7     11.7   100    34.3    17.170    31.4    5.383    5.981     100        0.52    0.000    0.000     222.6    222.6    2.07   195.5     875.1     241.5     241.5     146.8     146.8      51.1    0.000     0.000     0.000     0.000     0.000    2.07     0.00    0.00      0   -9.90   -9.00       10.5        9.5        8.4        8.3        9.6        9.6        9.6        9.6        9.6        9.6        9.6       11.7        0.0        0.0        0.0        0.0        0.0        0.0        0.0        0.0        0.0        0.0        0.0        0.0      1.9      13.3      20.5      26.9      33.3    391.85
    21     9  2011    83     4     224.7     1.7     14.1    0.0    1.7    0.0      0.0      0.0   -9.90      0.8      0.8    100     12.8     12.8   100     13.7    13.7     100     16.1    2.09     -9      0     -9      0      0    88.2    88.2      0     0.85     12.8     12.8     12.8   100    34.3    17.462    32.9    5.741    6.379     100        0.54    0.000    0.000     224.7    224.7    2.09   200.4     882.8     243.7     243.7     155.8     155.8      51.6    0.000     0.000     0.000     0.000     0.000    2.09     0.00    0.00      0   -9.90   -9.00        9.6        9.6        9.6        9.6        9.6        9.6        9.6        9.6        9.6        9.6        9.6       11.4        0.0        0.0        0.0        0.0        0.0        0.0        0.0        0.0        0.0        0.0        0.0        0.0      1.7      15.1      18.1      26.5      34.9    391.85
    22     9  2011    84     4     219.8     4.1      2.9    0.0    4.1    0.0      0.0      0.0   -9.90      0.9      0.9    100     11.0     11.0   100     11.9    11.9     100     17.2    2.10     -9      0     -9      0      0    86.6    86.6      0     0.83     11.0     11.0     11.0   100    34.3    17.745    34.4    6.105    6.783     100        0.57    0.000    0.000     219.8    219.8    2.10   198.5     890.4     245.8     245.8     149.5     149.5      52.0    0.000     0.000     0.000     0.000     0.000    2.10     0.00    0.00      0   -9.90   -9.00        9.4        9.4        9.4        9.4        9.4        9.4        9.4        9.4        9.4        9.4        9.4       11.0        0.0        0.0        0.0        0.0        0.0        0.0        0.0        0.0        0.0        0.0        0.0        0.0      4.1      13.3      20.4      26.9      33.4    391.85
    23     9  2011    85     4     218.1     3.9      5.7    0.0    3.9    0.0      0.0      0.0   -9.90      1.0      1.0    100     10.4     10.4   100     11.4    11.4     100     17.8    2.12     -9      0     -9      0      0    84.8    84.8      0     0.80     10.4     10.4     10.4   100    34.3    18.018    35.9    6.473    7.192     100        0.60    0.000    0.000     218.1    218.1    2.12   199.5     898.0     247.9     247.9     149.5     149.5      52.5    0.000     0.000     0.000     0.000     0.000    2.12     0.00    0.00      0   -9.90   -9.00        9.3        9.3        9.4        9.4        9.4        9.4        9.4        9.4        9.4        9.4        9.4       10.5        0.0        0.0        0.0        0.0        0.0        0.0        0.0        0.0        0.0        0.0        0.0        0.0      3.9      13.1      21.5      27.6      33.6    391.85
    24     9  2011    86     4     215.3     7.2      0.5    0.0    7.2    0.0      0.0      0.0   -9.90      1.1      1.1    100      9.4      9.4   100     10.4    10.4     100     17.8    2.14     -9      0     -9      0      0    82.8    82.8      0     0.76      9.4      9.4      9.4   100    34.3    18.280    37.4    6.845    7.606     100        0.63    0.000    0.000     215.3    215.3    2.14   199.3     905.6     250.0     250.0     147.3     147.3      52.9    0.000     0.000     0.000     0.000     0.000    2.14     0.00    0.00      0   -9.90   -9.00        9.3        9.3        9.3        9.3        9.3        9.3        9.3        9.3        9.3        9.3        9.3       10.1        0.0        0.0        0.0        0.0        0.0        0.0        0.0        0.0        0.0        0.0        0.0        0.0      7.2      12.3      21.7      27.2      32.7    391.85
    25     9  2011    87     4     216.6     4.1      8.1    0.0    4.1    0.0      0.0      0.0   -9.90      1.3      1.3    100      9.6      9.6   100     10.9    10.9     100     17.4    2.16     -9      0     -9      0      0    80.5    80.5      0     0.73      9.6      9.6      9.6   100    34.3    18.529    39.0    7.221    8.024     100        0.65    0.000    0.000     216.6    216.6    2.16   202.8     913.2     252.1     252.1     152.6     152.6      53.4    0.000     0.000     0.000     0.000     0.000    2.16     0.00    0.00      0   -9.90   -9.00        9.3        9.3        9.4        9.4        9.4        9.4        9.4        9.4        9.4        9.4        9.4        9.8        0.0        0.0        0.0        0.0        0.0        0.0        0.0        0.0        0.0        0.0        0.0        0.0      4.1      13.2      20.9      27.3      33.6    391.85
[...]
    10    12  2015    -9     0     238.1     4.9      0.0    0.0    4.9    0.0      0.0      0.0   -9.90     11.5      8.0     69      0.0      0.0   100     11.5     8.0      69     17.6    2.28     -9     -9     -9      0     -9     0.0     0.0      0    -9.00      0.0      0.0      0.0   100    34.5    20.004    48.2    9.637   10.708     100        0.81    0.000    0.000     238.1    238.1    2.28   236.4     965.7     266.5     266.5     148.0     167.8      56.5    0.000     0.000     0.000     0.000     0.000    2.28     0.00    0.00      0   -9.90   -9.00        5.6       11.7       11.7       11.7       11.7       11.7       11.7       11.2        9.3        9.3        9.3        9.3        0.0        0.0        0.0        0.0        0.0        0.0        0.0        0.0        0.0        0.0        0.0        0.0      4.9      10.4      21.2      27.2      33.2    401.01
    11    12  2015    -9     0     237.3     7.0      0.0    0.0    7.0    0.0      0.0      0.0   -9.90     11.2      7.8     69      0.0      0.0   100     11.2     7.8      69     17.9    2.28     -9     -9     -9      0     -9     0.0     0.0      0    -9.00      0.0      0.0      0.0   100    34.5    20.004    48.2    9.637   10.708     100        0.81    0.000    0.000     237.3    237.3    2.28   235.7     965.7     266.5     266.5     146.8     167.8      56.5    0.000     0.000     0.000     0.000     0.000    2.28     0.00    0.00      0   -9.90   -9.00        4.8       11.7       11.7       11.7       11.7       11.7       11.7       11.3        9.3        9.3        9.3        9.3        0.0        0.0        0.0        0.0        0.0        0.0        0.0        0.0        0.0        0.0        0.0        0.0      7.0      10.2      21.9      27.6      33.2    401.01
    12    12  2015    -9     0     237.3     8.1      0.0    0.0    8.1    0.0      0.0      0.0   -9.90     12.6      8.1     64      0.0      0.0   100     12.6     8.1      64     17.2    2.28     -9     -9     -9      0     -9     0.0     0.0      0    -9.00      0.0      0.0      0.0   100    34.5    20.004    48.2    9.637   10.708     100        0.81    0.000    0.000     237.3    237.3    2.28   235.6     965.7     266.5     266.5     152.9     167.8      56.5    0.000     0.000     0.000     0.000     0.000    2.28     0.00    0.00      0   -9.90   -9.00        4.8       11.7       11.7       11.7       11.7       11.7       11.7       11.3        9.3        9.3        9.3        9.3        0.0        0.0        0.0        0.0        0.0        0.0        0.0        0.0        0.0        0.0        0.0        0.0      8.1      11.4      20.4      27.6      34.7    401.01
    13    12  2015    -9     0     242.3    13.9      0.0    0.0   13.9    0.0      0.0      0.0   -9.90     13.0      8.9     68      0.0      0.0   100     13.0     8.9      68     16.8    2.28     -9     -9     -9      0     -9     0.0     0.0      0    -9.00      0.0      0.0      0.0   100    34.5    20.004    48.2    9.637   10.708     100        0.81    0.000    0.000     242.3    242.3    2.28   240.6     965.7     266.5     266.5     154.9     167.8      56.5    0.000     0.000     0.000     0.000     0.000    2.28     0.00    0.00      0   -9.90   -9.00        9.9       11.7       11.7       11.7       11.7       11.7       11.7       11.3        9.3        9.3        9.3        9.3        0.0        0.0        0.0        0.0        0.0        0.0        0.0        0.0        0.0        0.0        0.0        0.0     13.9      11.9      19.6      27.3      35.1    401.01
    14    12  2015    -9     0     239.2     5.0      0.0    0.0    5.0    0.0      0.0      0.0   -9.90     11.9      8.1     68      0.0      0.0   100     11.9     8.1      68     17.3    2.28     -9     -9     -9      0     -9     0.0     0.0      0    -9.00      0.0      0.0      0.0   100    34.5    20.004    48.2    9.637   10.708     100        0.81    0.000    0.000     239.2    239.2    2.28   237.5     965.7     266.5     266.5     150.0     167.8      56.5    0.000     0.000     0.000     0.000     0.000    2.28     0.00    0.00      0   -9.90   -9.00        6.7       11.7       11.7       11.7       11.7       11.7       11.7       11.3        9.3        9.3        9.3        9.3        0.0        0.0        0.0        0.0        0.0        0.0        0.0        0.0        0.0        0.0        0.0        0.0      5.0      10.8      20.7      27.2      33.7    401.01
    15    12  2015    -9     0     236.0     4.0      0.0    0.0    4.0    0.0      0.0      0.0   -9.90     12.2      7.2     59      0.0      0.0   100     12.2     7.2      59     18.1    2.28     -9     -9     -9      0     -9     0.0     0.0      0    -9.00      0.0      0.0      0.0   100    34.5    20.004    48.2    9.637   10.708     100        0.81    0.000    0.000     236.0    236.0    2.28   234.3     965.7     266.5     266.5     151.1     167.8      56.5    0.000     0.000     0.000     0.000     0.000    2.28     0.00    0.00      0   -9.90   -9.00        3.4       11.7       11.7       11.7       11.7       11.7       11.7       11.3        9.3        9.3        9.3        9.3        0.0        0.0        0.0        0.0        0.0        0.0        0.0        0.0        0.0        0.0        0.0        0.0      4.0      11.1      22.3      28.6      35.0    401.01
    16    12  2015    -9     0     234.4     3.4      0.0    0.0    3.4    0.0      0.0      0.0   -9.90     12.4      4.9     40      0.0      0.0   100     12.4     4.9      40     17.5    2.28     -9     -9     -9      0     -9     0.0     0.0      0    -9.00      0.0      0.0      0.0   100    34.5    20.004    48.2    9.637   10.708     100        0.81    0.000    0.000     234.4    234.4    2.28   232.8     965.7     266.5     266.5     152.2     167.8      56.5    0.000     0.000     0.000     0.000     0.000    2.28     0.00    0.00      0   -9.90   -9.00        1.9       11.7       11.7       11.7       11.7       11.7       11.7       11.3        9.3        9.3        9.3        9.3        0.0        0.0        0.0        0.0        0.0        0.0        0.0        0.0        0.0        0.0        0.0        0.0      3.4      11.3      20.9      27.8      34.7    401.01
    17    12  2015    -9     0     235.3     7.0      0.0    0.0    7.0    0.0      0.0      0.0   -9.90     12.0      6.1     51      0.0      0.0   100     12.0     6.1      51     17.5    2.28     -9     -9     -9      0     -9     0.0     0.0      0    -9.00      0.0      0.0      0.0   100    34.5    20.004    48.2    9.637   10.708     100        0.81    0.000    0.000     235.3    235.3    2.28   233.7     965.7     266.5     266.5     150.1     167.8      56.5    0.000     0.000     0.000     0.000     0.000    2.28     0.00    0.00      0   -9.90   -9.00        2.8       11.7       11.7       11.7       11.7       11.7       11.7       11.3        9.3        9.3        9.3        9.3        0.0        0.0        0.0        0.0        0.0        0.0        0.0        0.0        0.0        0.0        0.0        0.0      7.0      10.9      21.0      27.5      34.0    401.01
    18    12  2015    -9     0     234.6     4.8      0.0    0.0    4.8    0.0      0.0      0.0   -9.90     12.7      5.6     44      0.0      0.0   100     12.7     5.6      44     17.2    2.28     -9     -9     -9      0     -9     0.0     0.0      0    -9.00      0.0      0.0      0.0   100    34.5    20.004    48.2    9.637   10.708     100        0.81    0.000    0.000     234.6    234.6    2.28   232.9     965.7     266.5     266.5     153.2     167.8      56.5    0.000     0.000     0.000     0.000     0.000    2.28     0.00    0.00      0   -9.90   -9.00        2.0       11.7       11.7       11.7       11.7       11.7       11.7       11.3        9.3        9.3        9.3        9.3        0.0        0.0        0.0        0.0        0.0        0.0        0.0        0.0        0.0        0.0        0.0        0.0      4.8      11.5      20.5      27.7      34.9    401.01
    19    12  2015    -9     0     236.9    10.6      0.0    0.0   10.6    0.0      0.0      0.0   -9.90     12.8      8.3     65      0.0      0.0   100     12.8     8.3      65     16.5    2.28     -9     -9     -9      0     -9     0.0     0.0      0    -9.00      0.0      0.0      0.0   100    34.5    20.004    48.2    9.637   10.708     100        0.81    0.000    0.000     236.9    236.9    2.28   235.3     965.7     266.5     266.5     153.8     167.8      56.5    0.000     0.000     0.000     0.000     0.000    2.28     0.00    0.00      0   -9.90   -9.00        4.4       11.7       11.7       11.7       11.7       11.7       11.7       11.3        9.3        9.3        9.3        9.3        0.0        0.0        0.0        0.0        0.0        0.0        0.0        0.0        0.0        0.0        0.0        0.0     10.6      11.6      19.0      26.7      34.4    401.01
    20    12  2015    -9     0     235.8     5.3      0.0    0.0    5.3    0.0      0.0      0.0   -9.90     11.2      6.4     57      0.0      0.0   100     11.2     6.4      57     17.4    2.28     -9     -9     -9      0     -9     0.0     0.0      0    -9.00      0.0      0.0      0.0   100    34.5    20.004    48.2    9.637   10.708     100        0.81    0.000    0.000     235.8    235.8    2.28   234.2     965.7     266.5     266.5     146.9     167.8      56.5    0.000     0.000     0.000     0.000     0.000    2.28     0.00    0.00      0   -9.90   -9.00        3.3       11.7       11.7       11.7       11.7       11.7       11.7       11.3        9.3        9.3        9.3        9.3        0.0        0.0        0.0        0.0        0.0        0.0        0.0        0.0        0.0        0.0        0.0        0.0      5.3      10.2      20.9      26.8      32.7    401.01
    21    12  2015    -9     0     236.0     7.1      0.0    0.0    7.1    0.0      0.0      0.0   -9.90     11.7      7.0     60      0.0      0.0   100     11.7     7.0      60     17.6    2.28     -9     -9     -9      0     -9     0.0     0.0      0    -9.00      0.0      0.0      0.0   100    34.5    20.004    48.2    9.637   10.708     100        0.81    0.000    0.000     236.0    236.0    2.28   234.4     965.7     266.5     266.5     148.9     167.8      56.5    0.000     0.000     0.000     0.000     0.000    2.28     0.00    0.00      0   -9.90   -9.00        3.5       11.7       11.7       11.7       11.7       11.7       11.7       11.3        9.3        9.3        9.3        9.3        0.0        0.0        0.0        0.0        0.0        0.0        0.0        0.0        0.0        0.0        0.0        0.0      7.1      10.6      21.2      27.4      33.6    401.01
    22    12  2015    -9     0     235.4     5.4      0.0    0.0    5.4    0.0      0.0      0.0   -9.90     11.6      6.0     52      0.0      0.0   100     11.6     6.0      52     17.2    2.28     -9     -9     -9      0     -9     0.0     0.0      0    -9.00      0.0      0.0      0.0   100    34.5    20.004    48.2    9.637   10.708     100        0.81    0.000    0.000     235.4    235.4    2.28   233.8     965.7     266.5     266.5     148.4     167.8      56.5    0.000     0.000     0.000     0.000     0.000    2.28     0.00    0.00      0   -9.90   -9.00        2.9       11.7       11.7       11.7       11.7       11.7       11.7       11.3        9.3        9.3        9.3        9.3        0.0        0.0        0.0        0.0        0.0        0.0        0.0        0.0        0.0        0.0        0.0        0.0      5.4      10.5      20.4      26.7      33.0    401.01
    23    12  2015    -9     0     234.8     5.1      0.0    0.0    5.1    0.0      0.0      0.0   -9.90     12.2      5.7     46      0.0      0.0   100     12.2     5.7      46     17.6    2.28     -9     -9     -9      0     -9     0.0     0.0      0    -9.00      0.0      0.0      0.0   100    34.5    20.004    48.2    9.637   10.708     100        0.81    0.000    0.000     234.8    234.8    2.28   233.2     965.7     266.5     266.5     151.2     167.8      56.5    0.000     0.000     0.000     0.000     0.000    2.28     0.00    0.00      0   -9.90   -9.00        2.3       11.7       11.7       11.7       11.7       11.7       11.7       11.3        9.3        9.3        9.3        9.3        0.0        0.0        0.0        0.0        0.0        0.0        0.0        0.0        0.0        0.0        0.0        0.0      5.1      11.1      21.2      27.8      34.5    401.01
    24    12  2015    -9     0     233.6     1.5      0.0    0.0    1.5    0.0      0.0      0.0   -9.90     12.4      2.8     22      0.0      0.0   100     12.4     2.8      22     16.8    2.28     -9     -9     -9      0     -9     0.0     0.0      0    -9.00      0.0      0.0      0.0   100    34.5    20.004    48.2    9.637   10.708     100        0.81    0.000    0.000     233.6    233.6    2.28   232.0     965.7     266.5     266.5     151.9     167.8      56.5    0.000     0.000     0.000     0.000     0.000    2.28     0.00    0.00      0   -9.90   -9.00        1.2       11.6       11.7       11.7       11.7       11.7       11.7       11.3        9.3        9.3        9.3        9.3        0.0        0.0        0.0        0.0        0.0        0.0        0.0        0.0        0.0        0.0        0.0        0.0      1.5      11.2      19.6      26.7      33.9    401.01
    25    12  2015    -9     0     234.9     7.4      0.0    0.0    7.4    0.0      0.0      0.0   -9.90     13.0      6.1     47      0.0      0.0   100     13.0     6.1      47     17.1    2.28     -9     -9     -9      0     -9     0.0     0.0      0    -9.00      0.0      0.0      0.0   100    34.5    20.004    48.2    9.637   10.708     100        0.81    0.000    0.000     234.9    234.9    2.28   233.3     965.7     266.5     266.5     154.6     167.8      56.5    0.000     0.000     0.000     0.000     0.000    2.28     0.00    0.00      0   -9.90   -9.00        2.5       11.6       11.7       11.7       11.7       11.7       11.7       11.3        9.3        9.3        9.3        9.3        0.0        0.0        0.0        0.0        0.0        0.0        0.0        0.0        0.0        0.0        0.0        0.0      7.4      11.8      20.3      27.8      35.3    401.01
    26    12  2015    -9     0     235.9     8.8      0.0    0.0    8.8    0.0      0.0      0.0   -9.90     12.7      7.8     61      0.0      0.0   100     12.7     7.8      61     16.3    2.28     -9     -9     -9      0     -9     0.0     0.0      0    -9.00      0.0      0.0      0.0   100    34.5    20.004    48.2    9.637   10.708     100        0.81    0.000    0.000     235.9    235.9    2.28   234.3     965.7     266.5     266.5     153.4     167.8      56.5    0.000     0.000     0.000     0.000     0.000    2.28     0.00    0.00      0   -9.90   -9.00        3.5       11.6       11.7       11.7       11.7       11.7       11.7       11.3        9.3        9.3        9.3        9.3        0.0        0.0        0.0        0.0        0.0        0.0        0.0        0.0        0.0        0.0        0.0        0.0      8.8      11.6      18.6      26.2      33.9    401.01
    27    12  2015    -9     0     236.8     9.0      0.0    0.0    9.0    0.0      0.0      0.0   -9.90     12.7      8.1     64      0.0      0.0   100     12.7     8.1      64     17.1    2.28     -9     -9     -9      0     -9     0.0     0.0      0    -9.00      0.0      0.0      0.0   100    34.5    20.004    48.2    9.637   10.708     100        0.81    0.000    0.000     236.8    236.8    2.28   235.1     965.7     266.5     266.5     153.6     167.8      56.5    0.000     0.000     0.000     0.000     0.000    2.28     0.00    0.00      0   -9.90   -9.00        4.4       11.6       11.7       11.7       11.7       11.7       11.7       11.3        9.3        9.3        9.3        9.3        0.0        0.0        0.0        0.0        0.0        0.0        0.0        0.0        0.0        0.0        0.0        0.0      9.0      11.6      20.2      27.5      34.8    401.01
    28    12  2015    -9     0     234.8     2.9      0.0    0.0    2.9    0.0      0.0      0.0   -9.90     12.2      4.9     40      0.0      0.0   100     12.2     4.9      40     16.9    2.28     -9     -9     -9      0     -9     0.0     0.0      0    -9.00      0.0      0.0      0.0   100    34.5    20.004    48.2    9.637   10.708     100        0.81    0.000    0.000     234.8    234.8    2.28   233.1     965.7     266.5     266.5     151.3     167.8      56.5    0.000     0.000     0.000     0.000     0.000    2.28     0.00    0.00      0   -9.90   -9.00        2.3       11.6       11.7       11.7       11.7       11.7       11.7       11.3        9.3        9.3        9.3        9.3        0.0        0.0        0.0        0.0        0.0        0.0        0.0        0.0        0.0        0.0        0.0        0.0      2.9      11.1      19.8      26.7      33.6    401.01
    29    12  2015    -9     0     233.9     4.4      0.0    0.0    4.4    0.0      0.0      0.0   -9.90     12.8      5.2     41      0.0      0.0   100     12.8     5.2      41     16.9    2.28     -9     -9     -9      0     -9     0.0     0.0      0    -9.00      0.0      0.0      0.0   100    34.5    20.004    48.2    9.637   10.708     100        0.81    0.000    0.000     233.9    233.9    2.28   232.3     965.7     266.5     266.5     153.7     167.8      56.5    0.000     0.000     0.000     0.000     0.000    2.28     0.00    0.00      0   -9.90   -9.00        1.5       11.6       11.7       11.7       11.7       11.7       11.7       11.3        9.3        9.3        9.3        9.3        0.0        0.0        0.0        0.0        0.0        0.0        0.0        0.0        0.0        0.0        0.0        0.0      4.4      11.6      19.7      27.1      34.5    401.01
    30    12  2015    -9     0     232.9     0.2      0.0    0.0    0.2    0.0      0.0      0.0   -9.90     12.0      1.3     11      0.0      0.0   100     12.0     1.3      11     16.7    2.28     -9     -9     -9      0     -9     0.0     0.0      0    -9.00      0.0      0.0      0.0   100    34.5    20.004    48.2    9.637   10.708     100        0.81    0.000    0.000     232.9    232.9    2.28   231.2     965.7     266.5     266.5     150.3     167.8      56.5    0.000     0.000     0.000     0.000     0.000    2.28     0.00    0.00      0   -9.90   -9.00        1.2       11.1       11.7       11.7       11.7       11.7       11.7       11.3        9.3        9.3        9.3        9.3        0.0        0.0        0.0        0.0        0.0        0.0        0.0        0.0        0.0        0.0        0.0        0.0      0.2      10.9      19.4      26.2      33.0    401.01
    31    12  2015    -9     0     235.7    10.1      0.0    0.0   10.1    0.0      0.0      0.0   -9.90     11.3      7.3     64      0.0      0.0   100     11.3     7.3      64     17.3    2.28     -9     -9     -9      0     -9     0.0     0.0      0    -9.00      0.0      0.0      0.0   100    34.5    20.004    48.2    9.637   10.708     100        0.81    0.000    0.000     235.7    235.7    2.28   234.1     965.7     266.5     266.5     147.4     167.8      56.5    0.000     0.000     0.000     0.000     0.000    2.28     0.00    0.00      0   -9.90   -9.00        4.0       11.1       11.7       11.7       11.7       11.7       11.7       11.3        9.3        9.3        9.3        9.3        0.0        0.0        0.0        0.0        0.0        0.0        0.0        0.0        0.0        0.0        0.0        0.0     10.1      10.3      20.7      26.6      32.6    401.01
