AquaCrop 7.1 (August 2023) - Output created on (date) : 16-01-2026   at (time) : 12:17:29

    RunNr     Day1   Month1    Year1     Rain      ETo       GD     CO2      Irri   Infilt   Runoff    Drain   Upflow        E     E/Ex       Tr      TrW   Tr/Trx    SaltIn   SaltOut    SaltUp  SaltProf     Cycle   SaltStr  FertStr  WeedStr  TempStr   ExpStr   StoStr  BioMass  Brelative   HI    Y(dry)  Y(fresh)    WPet      Bin     Bout     DayN   MonthN    YearN
                                           mm       mm  degC.day    ppm        mm       mm       mm       mm       mm       mm        %       mm       mm        %    ton/ha    ton/ha    ton/ha    ton/ha      days       %        %        %        %        %        %    ton/ha        %       %    ton/ha   ton/ha    kg/m3   ton/ha   ton/ha
   Tot(1)        1        7     2011   1111.6   2426.3   3135.1   391.85    620.9   1109.0      2.7      0.0      0.0    947.7       55    831.1    831.1      100     0.000     0.000     0.000     0.000       89        0       30        0        0        1        0    19.918      100     48.2    9.595   10.661     0.83    0.000    0.000       31       12     2011  cluster_356.PRM
   Tot(2)        1        7     2012    998.5   2439.0   3129.6   394.06    562.5    994.9      3.7      0.0      0.0    791.3       46    830.5    830.5      100     0.000     0.000     0.000     0.000       89        0       30        0        0        1        0    19.890       99     48.2    9.582   10.646     0.83    0.000    0.000       31       12     2012  cluster_356.PRM
   Tot(3)        1        7     2013   1075.0   2428.0   3124.3   396.74    548.1   1070.4      4.6      0.1      0.0    859.2       50    815.5    815.5      100     0.000     0.000     0.000     0.000       89        0       30        0        0        1        0    19.789       99     48.2    9.534   10.593     0.82    0.000    0.000       31       12     2013  cluster_356.PRM
   Tot(4)        1        7     2014   1107.6   2428.0   3135.9   398.81    599.0   1102.7      4.9      0.0      0.0    905.5       53    831.0    831.0      100     0.000     0.000     0.000     0.000       89        0       30        0        0        1        0    19.936       99     48.2    9.604   10.672     0.82    0.000    0.000       31       12     2014  cluster_356.PRM
   Tot(5)        1        7     2015   1096.6   2443.0   3114.0   401.01    509.6   1090.9      5.8      1.6      0.0    827.9       48    830.8    830.8      100     0.000     0.000     0.000     0.000       89        0       30        0        0        1        0    19.966      100     48.2    9.619   10.688     0.82    0.000    0.000       31       12     2015  cluster_356.PRM
