AquaCrop 7.1 (August 2023) - Output created on (date) : 29-01-2026   at (time) : 01:20:26

   Run:   1
   Day Month  Year   DAP Stage   WC(2.30)   Rain     Irri   Surf   Infilt   RO    Drain       CR    Zgwt       Ex       E     E/Ex     Trx       Tr  Tr/Trx    ETx      ET  ET/ETx      GD       Z     StExp  StSto  StSen StSalt StWeed   CC      CCw     StTr  Kc(Tr)     Trx       Tr      TrW  Tr/Trx   WP    Biomass     HI    Y(dry)  Y(fresh)  Brelative    WPet      Bin     Bout  WC(2.30) Wr(2.30)     Z       Wr    Wr(SAT)    Wr(FC)   Wr(exp)   Wr(sto)   Wr(sen)   Wr(PWP)    SaltIn    SaltOut   SaltUp   Salt(2.30)  SaltZ     Z       ECe    ECsw   StSalt  Zgwt    ECgw       WC01       WC 2       WC 3       WC 4       WC 5       WC 6       WC 7       WC 8       WC 9       WC10       WC11       WC12      ECe01      ECe 2      ECe 3      ECe 4      ECe 5      ECe 6      ECe 7      ECe 8      ECe 9      ECe10      ECe11      ECe12     Rain       ETo      Tmin      Tavg      Tmax      CO2
                                      mm      mm       mm     mm     mm     mm       mm       mm      m        mm       mm     %        mm       mm    %        mm      mm       %  degC-day     m       %      %      %      %      %      %       %       %       -        mm       mm       mm    %     g/m2    ton/ha      %    ton/ha   ton/ha       %       kg/m3   ton/ha   ton/ha      mm       mm       m       mm        mm        mm        mm        mm        mm         mm    ton/ha    ton/ha    ton/ha    ton/ha    ton/ha     m      dS/m    dS/m      %     m      dS/m       0.05       0.18       0.33       0.48       0.63       0.80       1.00       1.20       1.43       1.68       1.93       2.18       0.05       0.18       0.33       0.48       0.63       0.80       1.00       1.20       1.43       1.68       1.93       2.18       mm        mm     degC      degC      degC       ppm
     1     7  2024     1     1     268.3     0.0      0.0    0.0    0.0    0.0      0.0      0.0   -9.90      0.3      0.3     98      0.0      0.0   100      0.3     0.3      98     19.5    0.30     -9     -9     -9      0     -9     0.0     0.0      0    -9.00      0.0      0.0      0.0   100     0.0     0.000    -9.9    0.000    0.000      -9        0.00    0.000    0.000     268.3    268.3    0.30    34.3     125.1      34.6      30.7      12.4      15.5       6.9    0.000     0.000     0.000     0.000     0.000    0.30     0.00    0.00      0   -9.90   -9.00       11.4       11.7       11.7       11.7       11.7       11.7       11.7       11.7       11.7       11.7       11.7       11.7        0.0        0.0        0.0        0.0        0.0        0.0        0.0        0.0        0.0        0.0        0.0        0.0      0.0       0.2      25.1      27.7      30.4    422.57
     2     7  2024     2     1     268.1     0.1      0.0    0.0    0.1    0.0      0.0      0.0   -9.90      0.3      0.3     95      0.0      0.0   100      0.3     0.3      95     19.5    0.30     -9     -9     -9      0     -9     0.0     0.0      0    -9.00      0.0      0.0      0.0   100     0.0     0.000    -9.9    0.000    0.000      -9        0.00    0.000    0.000     268.1    268.1    0.30    34.1     125.1      34.6      30.7      12.5      15.5       6.9    0.000     0.000     0.000     0.000     0.000    0.30     0.00    0.00      0   -9.90   -9.00       11.2       11.7       11.7       11.7       11.7       11.7       11.7       11.7       11.7       11.7       11.7       11.7        0.0        0.0        0.0        0.0        0.0        0.0        0.0        0.0        0.0        0.0        0.0        0.0      0.1       0.3      25.0      28.9      32.7    422.57
     3     7  2024     3     1     267.9     0.1      0.0    0.0    0.1    0.0      0.0      0.0   -9.90      0.3      0.3     99      0.0      0.0   100      0.3     0.3      99     20.1    0.30     -9     -9     -9      0     -9     0.0     0.0      0    -9.00      0.0      0.0      0.0   100     0.0     0.000    -9.9    0.000    0.000      -9        0.00    0.000    0.000     267.9    267.9    0.30    33.9     125.1      34.6      30.7      12.4      15.5       6.9    0.000     0.000     0.000     0.000     0.000    0.30     0.00    0.00      0   -9.90   -9.00       11.0       11.7       11.7       11.7       11.7       11.7       11.7       11.7       11.7       11.7       11.7       11.7        0.0        0.0        0.0        0.0        0.0        0.0        0.0        0.0        0.0        0.0        0.0        0.0      0.1       0.2      26.2      29.0      31.7    422.57
     4     7  2024     4     1     267.7     0.1      0.0    0.0    0.1    0.0      0.0      0.0   -9.90      0.3      0.2     96      0.0      0.0   100      0.3     0.2      96     19.6    0.30     -9     -9     -9      0     -9     0.0     0.0      0    -9.00      0.0      0.0      0.0   100     0.0     0.000    -9.9    0.000    0.000      -9        0.00    0.000    0.000     267.7    267.7    0.30    33.7     125.1      34.6      30.7      12.4      15.5       6.9    0.000     0.000     0.000     0.000     0.000    0.30     0.00    0.00      0   -9.90   -9.00       10.8       11.7       11.7       11.7       11.7       11.7       11.7       11.7       11.7       11.7       11.7       11.7        0.0        0.0        0.0        0.0        0.0        0.0        0.0        0.0        0.0        0.0        0.0        0.0      0.1       0.2      25.2      27.6      30.1    422.57
     5     7  2024     5     1     267.5     0.0      0.0    0.0    0.0    0.0      0.0      0.0   -9.90      0.3      0.3    100      0.0      0.0   100      0.3     0.3     100     19.3    0.32     -9     -9     -9      0     -9     0.0     0.0      0    -9.00      0.0      0.0      0.0   100     0.0     0.000    -9.9    0.000    0.000      -9        0.00    0.000    0.000     267.5    267.5    0.32    35.8     133.5      36.9      32.8      13.3      16.5       7.4    0.000     0.000     0.000     0.000     0.000    0.32     0.00    0.00      0   -9.90   -9.00       10.6       11.7       11.7       11.7       11.7       11.7       11.7       11.7       11.7       11.7       11.7       11.7        0.0        0.0        0.0        0.0        0.0        0.0        0.0        0.0        0.0        0.0        0.0        0.0      0.0       0.2      24.7      27.4      30.1    422.57
     6     7  2024     6     1     267.1     0.0      0.0    0.0    0.0    0.0      0.0      0.0   -9.90      0.4      0.3     94      0.0      0.0   100      0.4     0.3      94     19.1    0.36     -9     -9     -9      0     -9     0.0     0.0      0    -9.00      0.0      0.0      0.0   100     0.0     0.000    -9.9    0.000    0.000      -9        0.00    0.000    0.000     267.1    267.1    0.36    40.2     150.6      41.6      37.0      15.1      18.7       8.4    0.000     0.000     0.000     0.000     0.000    0.36     0.00    0.00      0   -9.90   -9.00       10.2       11.7       11.7       11.7       11.7       11.7       11.7       11.7       11.7       11.7       11.7       11.7        0.0        0.0        0.0        0.0        0.0        0.0        0.0        0.0        0.0        0.0        0.0        0.0      0.0       0.3      24.3      29.1      34.0    422.57
     7     7  2024     7     2     267.0     0.0      0.0    0.0    0.0    0.0      0.0      0.0   -9.90      0.2      0.2    100      0.0      0.0   100      0.2     0.2     100     19.0    0.40     -9      0      0      0      0     0.4     0.4      0     0.01      0.0      0.0      0.0   100    35.0     0.003    -9.9    0.000    0.000     100        0.00    0.000    0.000     267.0    267.0    0.40    44.4     166.4      46.0      34.2      16.6      16.6       9.3    0.000     0.000     0.000     0.000     0.000    0.40     0.00    0.00      0   -9.90   -9.00       10.1       11.7       11.7       11.7       11.7       11.7       11.7       11.7       11.7       11.7       11.7       11.7        0.0        0.0        0.0        0.0        0.0        0.0        0.0        0.0        0.0        0.0        0.0        0.0      0.0       0.2      25.8      27.0      28.2    422.57
     8     7  2024     8     2     268.0     1.3      0.0    0.0    1.3    0.0      0.0      0.0   -9.90      0.2      0.2    100      0.0      0.0   100      0.2     0.2     100     19.0    0.43     -9      0      0      0      0     0.5     0.5      0     0.01      0.0      0.0      0.0   100    35.0     0.006    -9.9    0.000    0.000     100        0.00    0.000    0.000     268.0    268.0    0.43    49.5     181.2      50.1      37.3      18.1      18.1      10.2    0.000     0.000     0.000     0.000     0.000    0.43     0.00    0.00      0   -9.90   -9.00       11.1       11.7       11.7       11.7       11.7       11.7       11.7       11.7       11.7       11.7       11.7       11.7        0.0        0.0        0.0        0.0        0.0        0.0        0.0        0.0        0.0        0.0        0.0        0.0      1.3       0.2      25.2      27.0      28.7    422.57
     9     7  2024     9     2     268.0     0.2      0.0    0.0    0.2    0.0      0.0      0.0   -9.90      0.3      0.3    100      0.0      0.0   100      0.3     0.3     100     19.2    0.47      0      0      0      0      0     0.6     0.6      0     0.01      0.0      0.0      0.0   100    35.0     0.010    -9.9    0.000    0.000     100        0.00    0.000    0.000     268.0    268.0    0.47    53.4     195.4      54.0      40.3      19.7      19.7      11.0    0.000     0.000     0.000     0.000     0.000    0.47     0.00    0.00      0   -9.90   -9.00       11.1       11.7       11.7       11.7       11.7       11.7       11.7       11.7       11.7       11.7       11.7       11.7        0.0        0.0        0.0        0.0        0.0        0.0        0.0        0.0        0.0        0.0        0.0        0.0      0.2       0.3      24.4      27.7      30.9    422.57
    10     7  2024    10     2     267.7     0.0      0.0    0.0    0.0    0.0      0.0      0.0   -9.90      0.3      0.3     95      0.0      0.0   100      0.3     0.3      95     19.0    0.50      0      0      0      0      0     0.7     0.7      0     0.01      0.0      0.0      0.0   100    35.0     0.014    -9.9    0.000    0.000     100        0.00    0.000    0.000     267.7    267.7    0.50    56.9     209.1      57.8      43.2      21.1      21.1      11.9    0.000     0.000     0.000     0.000     0.000    0.50     0.00    0.00      0   -9.90   -9.00       10.8       11.7       11.7       11.7       11.7       11.7       11.7       11.7       11.7       11.7       11.7       11.7        0.0        0.0        0.0        0.0        0.0        0.0        0.0        0.0        0.0        0.0        0.0        0.0      0.0       0.3      24.0      27.6      31.2    422.57
    11     7  2024    11     2     267.4     0.0      0.0    0.0    0.0    0.0      0.0      0.0   -9.90      0.3      0.3     88      0.0      0.0   100      0.3     0.3      88     19.7    0.53      0      0      0      0      0     0.8     0.8      0     0.01      0.0      0.0      0.0   100    35.0     0.019    -9.9    0.000    0.000     100        0.00    0.000    0.000     267.4    267.4    0.53    60.2     222.3      61.4      45.9      22.4      22.4      12.6    0.000     0.000     0.000     0.000     0.000    0.53     0.00    0.00      0   -9.90   -9.00       10.5       11.7       11.7       11.7       11.7       11.7       11.7       11.7       11.7       11.7       11.7       11.7        0.0        0.0        0.0        0.0        0.0        0.0        0.0        0.0        0.0        0.0        0.0        0.0      0.0       0.3      25.4      28.9      32.5    422.57
    12     7  2024    12     2     267.2     0.0      0.0    0.0    0.0    0.0      0.0      0.0   -9.90      0.2      0.2     95      0.0      0.0   100      0.2     0.2      95     20.0    0.56      0      0      0      0      0     1.0     1.0      0     0.02      0.0      0.0      0.0   100    35.0     0.026    -9.9    0.000    0.000     100        0.00    0.000    0.000     267.2    267.2    0.56    63.6     235.2      65.0      48.4      23.6      23.6      13.4    0.000     0.000     0.000     0.000     0.000    0.56     0.00    0.00      0   -9.90   -9.00       10.3       11.7       11.7       11.7       11.7       11.7       11.7       11.7       11.7       11.7       11.7       11.7        0.0        0.0        0.0        0.0        0.0        0.0        0.0        0.0        0.0        0.0        0.0        0.0      0.0       0.2      26.3      28.0      29.8    422.57
    13     7  2024    13     2     267.1     0.2      0.0    0.0    0.2    0.0      0.0      0.0   -9.90      0.2      0.2    100      0.0      0.0   100      0.3     0.3     100     19.7    0.59      0      0      0      0      0     1.2     1.2      0     0.02      0.0      0.0      0.0   100    35.0     0.033    -9.9    0.000    0.000     100        0.00    0.000    0.000     267.1    267.1    0.59    67.0     247.7      68.4      51.1      25.0      25.0      14.1    0.000     0.000     0.000     0.000     0.000    0.59     0.00    0.00      0   -9.90   -9.00       10.2       11.7       11.7       11.7       11.7       11.7       11.7       11.7       11.7       11.7       11.7       11.7        0.0        0.0        0.0        0.0        0.0        0.0        0.0        0.0        0.0        0.0        0.0        0.0      0.2       0.2      25.3      27.8      30.3    422.57
    14     7  2024    14     2     266.9     0.0      0.0    0.0    0.0    0.0      0.0      0.0   -9.90      0.3      0.3     98      0.0      0.0   100      0.3     0.3      99     19.5    0.62      0      0      0      0      0     1.4     1.4      0     0.02      0.0      0.0      0.0   100    35.0     0.041    -9.9    0.000    0.000     100        0.00    0.000    0.000     266.9    266.9    0.62    70.1     259.9      71.8      53.7      26.3      26.3      14.8    0.000     0.000     0.000     0.000     0.000    0.62     0.00    0.00      0   -9.90   -9.00        9.9       11.7       11.7       11.7       11.7       11.7       11.7       11.7       11.7       11.7       11.7       11.7        0.0        0.0        0.0        0.0        0.0        0.0        0.0        0.0        0.0        0.0        0.0        0.0      0.0       0.3      24.9      28.3      31.7    422.57
    15     7  2024    15     2     266.6     0.0      0.0    0.0    0.0    0.0      0.0      0.0   -9.90      0.3      0.3     92      0.0      0.0   100      0.3     0.3      92     19.7    0.65      0      0      0      0      0     1.6     1.6      0     0.03      0.0      0.0      0.0   100    35.0     0.051    -9.9    0.000    0.000     100        0.00    0.000    0.000     266.6    266.6    0.65    73.1     271.9      75.1      56.1      27.5      27.5      15.6    0.000     0.000     0.000     0.000     0.000    0.65     0.00    0.00      0   -9.90   -9.00        9.7       11.7       11.7       11.7       11.7       11.7       11.7       11.7       11.7       11.7       11.7       11.7        0.0        0.0        0.0        0.0        0.0        0.0        0.0        0.0        0.0        0.0        0.0        0.0      0.0       0.3      25.4      28.4      31.5    422.57
    16     7  2024    16     2     266.5     0.2      0.0    0.0    0.2    0.0      0.0      0.0   -9.90      0.3      0.3    100      0.0      0.0   100      0.3     0.3     100     20.0    0.67      0      0      0      0      0     1.9     1.9      0     0.03      0.0      0.0      0.0   100    35.0     0.063    -9.9    0.000    0.000     100        0.00    0.000    0.000     266.5    266.5    0.67    76.2     283.6      78.3      58.5      28.7      28.7      16.2    0.000     0.000     0.000     0.000     0.000    0.67     0.00    0.00      0   -9.90   -9.00        9.6       11.7       11.7       11.7       11.7       11.7       11.7       11.7       11.7       11.7       11.7       11.7        0.0        0.0        0.0        0.0        0.0        0.0        0.0        0.0        0.0        0.0        0.0        0.0      0.2       0.2      26.0      28.8      31.5    422.57
    17     7  2024    17     2     266.2     0.0      0.0    0.0    0.0    0.0      0.0      0.0   -9.90      0.3      0.3     95      0.0      0.0   100      0.3     0.3      95     19.8    0.70      0      0      0      0      0     2.3     2.3      0     0.04      0.0      0.0      0.0   100    35.0     0.077    -9.9    0.000    0.000     100        0.00    0.000    0.000     266.2    266.2    0.70    79.2     295.2      81.5      60.9      29.9      29.9      16.9    0.000     0.000     0.000     0.000     0.000    0.70     0.00    0.00      0   -9.90   -9.00        9.3       11.7       11.7       11.7       11.7       11.7       11.7       11.7       11.7       11.7       11.7       11.7        0.0        0.0        0.0        0.0        0.0        0.0        0.0        0.0        0.0        0.0        0.0        0.0      0.0       0.3      25.6      28.5      31.5    422.57
    18     7  2024    18     2     267.1     1.1      0.0    0.0    1.1    0.0      0.0      0.0   -9.90      0.3      0.3    100      0.0      0.0   100      0.3     0.3     100     19.7    0.73      0      0      0      0      0     2.7     2.7      0     0.05      0.0      0.0      0.0   100    35.0     0.094    -9.9    0.000    0.000     100        0.00    0.000    0.000     267.1    267.1    0.73    83.2     306.5      84.6      63.2      31.0      31.0      17.6    0.000     0.000     0.000     0.000     0.000    0.73     0.00    0.00      0   -9.90   -9.00       10.2       11.7       11.7       11.7       11.7       11.7       11.7       11.7       11.7       11.7       11.7       11.7        0.0        0.0        0.0        0.0        0.0        0.0        0.0        0.0        0.0        0.0        0.0        0.0      1.1       0.2      25.4      28.1      30.9    422.57
    19     7  2024    19     2     268.2     1.4      0.0    0.0    1.4    0.0      0.0      0.0   -9.90      0.3      0.3    100      0.0      0.0   100      0.3     0.3     100     19.6    0.75      0      0      0      0      0     3.2     3.2      0     0.06      0.0      0.0      0.0   100    35.0     0.113    -9.9    0.000    0.000     100        0.00    0.000    0.000     268.2    268.2    0.75    87.4     317.7      87.7      65.7      32.2      32.2      18.3    0.000     0.000     0.000     0.000     0.000    0.75     0.00    0.00      0   -9.90   -9.00       11.3       11.7       11.7       11.7       11.7       11.7       11.7       11.7       11.7       11.7       11.7       11.7        0.0        0.0        0.0        0.0        0.0        0.0        0.0        0.0        0.0        0.0        0.0        0.0      1.4       0.3      25.2      29.0      32.8    422.57
    20     7  2024    20     2     268.1     0.1      0.0    0.0    0.1    0.0      0.0      0.0   -9.90      0.2      0.2    100      0.0      0.0   100      0.2     0.2     100     20.5    0.78      0      0      0      0      0     3.7     3.7      0     0.06      0.0      0.0      0.0   100    35.0     0.136    -9.9    0.000    0.000     100        0.00    0.000    0.000     268.1    268.1    0.78    90.2     328.7      90.8      67.7      33.2      33.2      18.9    0.000     0.000     0.000     0.000     0.000    0.78     0.00    0.00      0   -9.90   -9.00       11.2       11.7       11.7       11.7       11.7       11.7       11.7       11.7       11.7       11.7       11.7       11.7        0.0        0.0        0.0        0.0        0.0        0.0        0.0        0.0        0.0        0.0        0.0        0.0      0.1       0.2      27.1      29.0      31.0    422.57
    21     7  2024    21     2     267.9     0.1      0.0    0.0    0.1    0.0      0.0      0.0   -9.90      0.3      0.3     99      0.0      0.0   100      0.3     0.3     100     20.1    0.81      0      0      0      0      0     4.4     4.4      0     0.08      0.0      0.0      0.0   100    35.0     0.163    -9.9    0.000    0.000     100        0.00    0.000    0.000     267.9    267.9    0.81    93.1     339.6      93.8      70.1      34.4      34.4      19.5    0.000     0.000     0.000     0.000     0.000    0.81     0.00    0.00      0   -9.90   -9.00       11.0       11.7       11.7       11.7       11.7       11.7       11.7       11.7       11.7       11.7       11.7       11.7        0.0        0.0        0.0        0.0        0.0        0.0        0.0        0.0        0.0        0.0        0.0        0.0      0.1       0.2      26.1      28.9      31.7    422.57
    22     7  2024    22     2     267.6     0.0      0.0    0.0    0.0    0.0      0.0      0.0   -9.90      0.3      0.3     94      0.0      0.0   100      0.3     0.3      94     20.0    0.83      0      0      0      0      0     5.2     5.2      0     0.09      0.0      0.0      0.0   100    35.0     0.194    -9.9    0.000    0.000     100        0.00    0.000    0.000     267.6    267.6    0.83    95.8     350.3      96.7      72.4      35.5      35.5      20.2    0.000     0.000     0.000     0.000     0.000    0.83     0.00    0.00      0   -9.90   -9.00       10.7       11.7       11.7       11.7       11.7       11.7       11.7       11.7       11.7       11.7       11.7       11.7        0.0        0.0        0.0        0.0        0.0        0.0        0.0        0.0        0.0        0.0        0.0        0.0      0.0       0.3      26.0      29.2      32.5    422.57
    23     7  2024    23     2     267.4     0.0      0.0    0.0    0.0    0.0      0.0      0.0   -9.90      0.2      0.2     99      0.0      0.0   100      0.3     0.3      99     20.3    0.86      0      0      0      0      0     6.1     6.1      0     0.10      0.0      0.0      0.0   100    35.0     0.231    -9.9    0.000    0.000     100        0.00    0.000    0.000     267.4    267.4    0.86    98.5     360.9      99.7      74.5      36.5      36.5      20.8    0.000     0.000     0.000     0.000     0.000    0.86     0.00    0.00      0   -9.90   -9.00       10.5       11.7       11.7       11.7       11.7       11.7       11.7       11.7       11.7       11.7       11.7       11.7        0.0        0.0        0.0        0.0        0.0        0.0        0.0        0.0        0.0        0.0        0.0        0.0      0.0       0.2      26.7      29.0      31.4    422.57
    24     7  2024    24     2     268.9     1.7      0.0    0.0    1.7    0.0      0.0      0.0   -9.90      0.2      0.2    100      0.0      0.0   100      0.3     0.3     100     20.4    0.88      0      0      0      0      0     7.2     7.2      0     0.12      0.0      0.0      0.0   100    35.0     0.274    -9.9    0.000    0.000     100        0.00    0.000    0.000     268.9    268.9    0.88   102.8     371.4     102.5      76.6      37.6      37.6      21.4    0.000     0.000     0.000     0.000     0.000    0.88     0.00    0.00      0   -9.90   -9.00       12.0       11.7       11.7       11.7       11.7       11.7       11.7       11.7       11.7       11.7       11.7       11.7        0.0        0.0        0.0        0.0        0.0        0.0        0.0        0.0        0.0        0.0        0.0        0.0      1.7       0.2      26.9      29.2      31.4    422.57
    25     7  2024    25     2     277.6     9.2      0.0    0.0    9.0    0.1      0.1      0.0   -9.90      0.2      0.2    100      0.0      0.0   100      0.2     0.2     100     19.1    0.91      0      0      0      0      0     8.5     8.5      0     0.14      0.0      0.0      0.0   100    35.0     0.324    -9.9    0.000    0.000     100        0.00    0.000    0.000     277.6    277.6    0.91   114.4     381.7     105.4      78.7      38.6      38.6      22.0    0.000     0.000     0.000     0.000     0.000    0.91     0.00    0.00      0   -9.90   -9.00       20.7       11.7       11.7       11.7       11.7       11.7       11.7       11.7       11.7       11.7       11.7       11.7        0.0        0.0        0.0        0.0        0.0        0.0        0.0        0.0        0.0        0.0        0.0        0.0      9.2       0.2      25.1      27.1      29.1    422.57
    26     7  2024    26     2     292.5    20.0      0.0    0.0   18.3    1.7      3.1      0.0   -9.90      0.2      0.2    100      0.0      0.0   100      0.2     0.2     100     19.8    0.93      0      0      0      0      0    10.0    10.0      0     0.17      0.0      0.0      0.0   100    35.0     0.383    -9.9    0.000    0.000     100        0.00    0.000    0.000     292.5    292.5    0.93   131.0     392.0     108.2      80.8      39.7      39.7      22.6    0.000     0.000     0.000     0.000     0.000    0.93     0.00    0.00      0   -9.90   -9.00       31.0       12.4       12.5       12.1       12.0       11.9       11.8       11.8       11.8       11.8       11.8       11.8        0.0        0.0        0.0        0.0        0.0        0.0        0.0        0.0        0.0        0.0        0.0        0.0     20.0       0.2      25.6      27.8      29.9    422.57
    27     7  2024    27     2     281.6     0.3      0.0    0.0    0.3    0.0     11.0      0.0   -9.90      0.2      0.2    100      0.0      0.0   100      0.2     0.2     100     20.1    0.95      0      0      0      0      0    11.8    11.8      0     0.20      0.0      0.0      0.0   100    35.0     0.452    -9.9    0.000    0.000     100        0.00    0.000    0.000     281.6    281.6    0.95   120.5     402.2     111.0      82.9      40.7      40.7      23.2    0.000     0.000     0.000     0.000     0.000    0.95     0.00    0.00      0   -9.90   -9.00       12.6       12.8       13.5       12.8       12.5       12.3       12.1       12.1       12.0       11.9       11.9       11.9        0.0        0.0        0.0        0.0        0.0        0.0        0.0        0.0        0.0        0.0        0.0        0.0      0.3       0.2      26.2      28.4      30.5    422.57
    28     7  2024    28     2     273.2     0.1      0.0    0.0    0.1    0.0      8.4      0.0   -9.90      0.2      0.2    100      0.0      0.0   100      0.2     0.2     100     19.9    0.98      0      0      0      0      0    14.0    14.0      0     0.23      0.0      0.0      0.0   100    35.0     0.532    -9.9    0.000    0.000     100        0.00    0.000    0.000     273.2    273.2    0.98   116.2     412.2     113.8      85.0      41.7      41.7      23.8    0.000     0.000     0.000     0.000     0.000    0.98     0.00    0.00      0   -9.90   -9.00       11.6       11.9       12.1       12.0       12.0       12.0       11.9       11.9       11.9       11.9       11.8       11.8        0.0        0.0        0.0        0.0        0.0        0.0        0.0        0.0        0.0        0.0        0.0        0.0      0.1       0.2      25.8      27.9      30.0    422.57
    29     7  2024    29     2     269.5     0.0      0.0    0.0    0.0    0.0      3.4      0.0   -9.90      0.2      0.2     97      0.1      0.1   100      0.3     0.3      98     19.6    1.00      0      0      0      0      0    16.5    16.5      0     0.27      0.1      0.1      0.1   100    35.0     0.626    -9.9    0.000    0.000     100        0.00    0.000    0.000     269.5    269.5    1.00   116.8     422.2     116.6      87.2      42.9      42.9      24.4    0.000     0.000     0.000     0.000     0.000    1.00     0.00    0.00      0   -9.90   -9.00       11.3       11.7       11.8       11.8       11.8       11.8       11.8       11.8       11.8       11.8       11.8       11.7        0.0        0.0        0.0        0.0        0.0        0.0        0.0        0.0        0.0        0.0        0.0        0.0      0.0       0.2      25.2      28.0      30.8    422.57
    30     7  2024    30     2     268.3     0.0      0.0    0.0    0.0    0.0      1.0      0.0   -9.90      0.2      0.2    100      0.1      0.1   100      0.3     0.3     100     19.7    1.02      0      0      0      0      0    19.4    19.4      0     0.31      0.1      0.1      0.1   100    35.0     0.734    -9.9    0.000    0.000     100        0.00    0.000    0.000     268.3    268.3    1.02   118.8     432.0     119.3      89.2      43.8      43.8      25.0    0.000     0.000     0.000     0.000     0.000    1.02     0.00    0.00      0   -9.90   -9.00       11.1       11.7       11.7       11.7       11.7       11.7       11.7       11.7       11.7       11.7       11.7       11.7        0.0        0.0        0.0        0.0        0.0        0.0        0.0        0.0        0.0        0.0        0.0        0.0      0.0       0.2      25.4      28.0      30.5    422.57
    31     7  2024    31     2     267.8     0.1      0.0    0.0    0.1    0.0      0.2      0.0   -9.90      0.2      0.2     98      0.1      0.1   100      0.3     0.3      99     20.0    1.05      0      0      0      0      0    22.9    22.9      0     0.36      0.1      0.1      0.1   100    35.0     0.859    -9.9    0.000    0.000     100        0.00    0.000    0.000     267.8    267.8    1.05   121.2     441.8     122.0      91.2      44.8      44.8      25.6    0.000     0.000     0.000     0.000     0.000    1.05     0.00    0.00      0   -9.90   -9.00       10.9       11.7       11.7       11.7       11.7       11.7       11.7       11.7       11.7       11.7       11.7       11.7        0.0        0.0        0.0        0.0        0.0        0.0        0.0        0.0        0.0        0.0        0.0        0.0      0.1       0.2      25.9      28.4      31.0    422.57
     1     8  2024    32     2     267.5     0.0      0.0    0.0    0.0    0.0      0.1      0.0   -9.90      0.2      0.2    100      0.1      0.1   100      0.3     0.3     100     19.7    1.07      0      0      0      0      0    27.0    27.0      0     0.41      0.1      0.1      0.1   100    35.0     1.003    -9.9    0.000    0.000     100        0.00    0.000    0.000     267.5    267.5    1.07   123.6     451.5     124.7      93.3      45.9      45.9      26.1    0.000     0.000     0.000     0.000     0.000    1.07     0.00    0.00      0   -9.90   -9.00       10.6       11.7       11.7       11.7       11.7       11.7       11.7       11.7       11.7       11.7       11.7       11.7        0.0        0.0        0.0        0.0        0.0        0.0        0.0        0.0        0.0        0.0        0.0        0.0      0.0       0.2      25.3      28.1      30.9    422.57
     2     8  2024    33     2     267.3     0.0      0.0    0.0    0.0    0.0      0.0      0.0   -9.90      0.1      0.1     99      0.1      0.1   100      0.3     0.3      99     20.0    1.09      0      0      0      0      0    31.8    31.8      0     0.47      0.1      0.1      0.1   100    35.0     1.168    -9.9    0.000    0.000     100        0.00    0.000    0.000     267.3    267.3    1.09   126.0     461.2     127.3      95.2      46.8      46.8      26.7    0.000     0.000     0.000     0.000     0.000    1.09     0.00    0.00      0   -9.90   -9.00       10.4       11.7       11.7       11.7       11.7       11.7       11.7       11.7       11.7       11.7       11.7       11.7        0.0        0.0        0.0        0.0        0.0        0.0        0.0        0.0        0.0        0.0        0.0        0.0      0.0       0.2      25.9      28.5      31.1    422.57
     3     8  2024    34     2     267.0     0.0      0.0    0.0    0.0    0.0      0.0      0.0   -9.90      0.2      0.1     93      0.2      0.2   100      0.3     0.3      97     19.6    1.12      0      0      0      0      0    37.5    37.5      0     0.54      0.2      0.2      0.2   100    35.0     1.357    -9.9    0.000    0.000     100        0.00    0.000    0.000     267.0    267.0    1.12   128.4     470.7     130.0      97.4      47.9      47.9      27.3    0.000     0.000     0.000     0.000     0.000    1.12     0.00    0.00      0   -9.90   -9.00       10.1       11.7       11.7       11.7       11.7       11.7       11.7       11.7       11.7       11.7       11.7       11.7        0.0        0.0        0.0        0.0        0.0        0.0        0.0        0.0        0.0        0.0        0.0        0.0      0.0       0.3      25.1      28.8      32.4    422.57
     4     8  2024    35     2     267.0     0.1      0.0    0.0    0.1    0.0      0.0      0.0   -9.90      0.1      0.1    100      0.1      0.1   100      0.2     0.2     100     19.1    1.14      0      0      0      0      0    44.3    44.3      0     0.61      0.1      0.1      0.1   100    35.0     1.571    -9.9    0.000    0.000     100        0.00    0.000    0.000     267.0    267.0    1.14   131.0     480.2     132.6      98.8      48.6      48.6      27.8    0.000     0.000     0.000     0.000     0.000    1.14     0.00    0.00      0   -9.90   -9.00       10.0       11.7       11.7       11.7       11.7       11.7       11.7       11.7       11.7       11.7       11.7       11.7        0.0        0.0        0.0        0.0        0.0        0.0        0.0        0.0        0.0        0.0        0.0        0.0      0.1       0.2      25.9      27.1      28.4    422.57
     5     8  2024    36     2     284.9    19.1      0.0    0.0   18.2    0.9      0.0      0.0   -9.90      0.1      0.1    100      0.1      0.1   100      0.2     0.2     100     19.5    1.16      0      0      0      0      0    51.8    51.8      0     0.69      0.1      0.1      0.1   100    35.0     1.812    -9.9    0.000    0.000     100        0.00    0.000    0.000     284.9    284.9    1.16   151.5     489.6     135.2     100.9      49.6      49.6      28.4    0.000     0.000     0.000     0.000     0.000    1.16     0.00    0.00      0   -9.90   -9.00       28.3       11.7       11.7       11.7       11.7       11.7       11.7       11.7       11.7       11.7       11.7       11.7        0.0        0.0        0.0        0.0        0.0        0.0        0.0        0.0        0.0        0.0        0.0        0.0     19.1       0.2      25.7      27.5      29.2    422.57
     6     8  2024    37     2     285.8     7.5      0.0    0.0    7.4    0.0      6.4      0.0   -9.90      0.1      0.1    100      0.2      0.2   100      0.2     0.2     100     20.1    1.18      0      0      0      0      0    58.4    58.4      0     0.75      0.2      0.2      0.2   100    35.0     2.075    -9.9    0.000    0.000     100        0.00    0.000    0.000     285.8    285.8    1.18   153.3     499.0     137.8     103.0      50.7      50.7      28.9    0.000     0.000     0.000     0.000     0.000    1.18     0.00    0.00      0   -9.90   -9.00       19.9       12.7       13.2       12.5       12.3       12.1       12.0       11.9       11.9       11.8       11.8       11.8        0.0        0.0        0.0        0.0        0.0        0.0        0.0        0.0        0.0        0.0        0.0        0.0      7.5       0.2      26.2      28.6      30.9    422.57
     7     8  2024    38     2     278.1     1.5      0.0    0.0    1.5    0.0      8.9      0.0   -9.90      0.1      0.1    100      0.2      0.2   100      0.3     0.3     100     20.2    1.20      0      0      0      0      0    64.0    64.0      0     0.80      0.2      0.2      0.2   100    35.0     2.354    -9.9    0.000    0.000     100        0.00    0.000    0.000     278.1    278.1    1.20   147.8     508.3     140.3     104.9      51.6      51.6      29.5    0.000     0.000     0.000     0.000     0.000    1.20     0.00    0.00      0   -9.90   -9.00       13.2       12.4       12.6       12.3       12.3       12.1       12.0       12.0       11.9       11.9       11.9       11.8        0.0        0.0        0.0        0.0        0.0        0.0        0.0        0.0        0.0        0.0        0.0        0.0      1.5       0.2      26.3      28.9      31.4    422.57
     8     8  2024    39     2     274.7     2.8      0.0    0.0    2.8    0.0      6.0      0.0   -9.90      0.1      0.1    100      0.2      0.2   100      0.3     0.3     100     20.1    1.23      0      0      0      0      0    68.8    68.8      0     0.84      0.2      0.2      0.2   100    35.0     2.647    -9.9    0.000    0.000     100        0.00    0.000    0.000     274.7    274.7    1.23   147.8     517.5     142.9     106.9      52.6      52.6      30.0    0.000     0.000     0.000     0.000     0.000    1.23     0.00    0.00      0   -9.90   -9.00       14.5       11.9       11.9       11.9       11.9       11.9       11.9       11.8       11.8       11.8       11.8       11.8        0.0        0.0        0.0        0.0        0.0        0.0        0.0        0.0        0.0        0.0        0.0        0.0      2.8       0.2      26.3      28.9      31.4    422.57
     9     8  2024    40     2     271.8     0.8      0.0    0.0    0.8    0.0      3.4      0.0   -9.90      0.0      0.0    100      0.2      0.2   100      0.2     0.2     100     20.6    1.25      0      0      0      0      0    72.8    72.8      0     0.87      0.2      0.2      0.2   100    35.0     2.950    -9.9    0.000    0.000     100        0.00    0.000    0.000     271.8    271.8    1.25   148.0     526.7     145.4     108.7      53.5      53.5      30.6    0.000     0.000     0.000     0.000     0.000    1.25     0.00    0.00      0   -9.90   -9.00       12.4       12.0       12.0       11.9       11.9       11.8       11.8       11.8       11.8       11.8       11.8       11.8        0.0        0.0        0.0        0.0        0.0        0.0        0.0        0.0        0.0        0.0        0.0        0.0      0.8       0.2      27.1      29.1      31.2    422.57
    10     8  2024    41     2     269.9     0.3      0.0    0.0    0.3    0.0      2.0      0.0   -9.90      0.0      0.0    100      0.2      0.2   100      0.2     0.2     100     20.3    1.27      0      0      0      0      0    76.2    76.2      0     0.89      0.2      0.2      0.2   100    35.0     3.263    -9.9    0.000    0.000     100        0.00    0.000    0.000     269.9    269.9    1.27   148.9     535.8     147.9     110.6      54.4      54.4      31.1    0.000     0.000     0.000     0.000     0.000    1.27     0.00    0.00      0   -9.90   -9.00       11.8       11.8       11.8       11.8       11.8       11.8       11.8       11.7       11.7       11.7       11.7       11.7        0.0        0.0        0.0        0.0        0.0        0.0        0.0        0.0        0.0        0.0        0.0        0.0      0.3       0.2      26.7      29.1      31.5    422.57
    11     8  2024    42     2     268.8     0.1      0.0    0.0    0.1    0.0      0.9      0.0   -9.90      0.0      0.0    100      0.3      0.3   100      0.3     0.3     100     19.7    1.29      0      0      0      0      0    79.1    79.1      0     0.91      0.3      0.3      0.3   100    35.0     3.584    -9.9    0.000    0.000     100        0.00    0.000    0.000     268.8    268.8    1.29   150.4     544.9     150.4     112.7      55.5      55.5      31.6    0.000     0.000     0.000     0.000     0.000    1.29     0.00    0.00      0   -9.90   -9.00       11.5       11.7       11.7       11.7       11.7       11.7       11.7       11.7       11.7       11.7       11.7       11.7        0.0        0.0        0.0        0.0        0.0        0.0        0.0        0.0        0.0        0.0        0.0        0.0      0.1       0.3      25.5      29.1      32.7    422.57
    12     8  2024    43     2     268.5     0.3      0.0    0.0    0.3    0.0      0.3      0.0   -9.90      0.0      0.0    100      0.3      0.3   100      0.3     0.3     100     20.1    1.31      0      0      0      0      0    81.6    81.6      0     0.93      0.3      0.3      0.3   100    35.0     3.910    -9.9    0.000    0.000     100        0.00    0.000    0.000     268.5    268.5    1.31   152.8     553.9     152.9     114.5      56.4      56.4      32.2    0.000     0.000     0.000     0.000     0.000    1.31     0.00    0.00      0   -9.90   -9.00       11.5       11.7       11.7       11.7       11.7       11.7       11.7       11.7       11.7       11.7       11.7       11.7        0.0        0.0        0.0        0.0        0.0        0.0        0.0        0.0        0.0        0.0        0.0        0.0      0.3       0.3      26.2      29.4      32.6    422.57
    13     8  2024    44     2     268.4     0.2      0.0    0.0    0.2    0.0      0.1      0.0   -9.90      0.0      0.0    100      0.2      0.2   100      0.2     0.2     100     20.7    1.33      0      0      0      0      0    83.7    83.7      0     0.95      0.2      0.2      0.2   100    35.0     4.242    -9.9    0.000    0.000     100        0.00    0.000    0.000     268.4    268.4    1.33   155.2     562.8     155.4     116.2      57.2      57.2      32.7    0.000     0.000     0.000     0.000     0.000    1.33     0.00    0.00      0   -9.90   -9.00       11.5       11.7       11.7       11.7       11.7       11.7       11.7       11.7       11.7       11.7       11.7       11.7        0.0        0.0        0.0        0.0        0.0        0.0        0.0        0.0        0.0        0.0        0.0        0.0      0.2       0.2      27.5      29.7      31.9    422.57
    14     8  2024    45     2     268.4     0.2      0.0    0.0    0.2    0.0      0.0      0.0   -9.90      0.0      0.0    100      0.2      0.2   100      0.2     0.2     100     20.2    1.35      0      0      0      0      0    85.4    85.4      0     0.96      0.2      0.2      0.2   100    35.0     4.578    -9.9    0.000    0.000     100        0.00    0.000    0.000     268.4    268.4    1.35   157.7     571.7     157.8     118.0      58.1      58.1      33.2    0.000     0.000     0.000     0.000     0.000    1.35     0.00    0.00      0   -9.90   -9.00       11.5       11.7       11.7       11.7       11.7       11.7       11.7       11.7       11.7       11.7       11.7       11.7        0.0        0.0        0.0        0.0        0.0        0.0        0.0        0.0        0.0        0.0        0.0        0.0      0.2       0.2      26.4      28.5      30.6    422.57
    15     8  2024    46     2     268.2     0.1      0.0    0.0    0.1    0.0      0.0      0.0   -9.90      0.0      0.0    100      0.3      0.3   100      0.3     0.3     100     20.1    1.37      0      0      0      0      0    86.9    86.9      0     0.97      0.3      0.3      0.3   100    35.0     4.917    -9.9    0.000    0.000     100        0.00    0.000    0.000     268.2    268.2    1.37   159.9     580.6     160.3     120.0      59.1      59.1      33.8    0.000     0.000     0.000     0.000     0.000    1.37     0.00    0.00      0   -9.90   -9.00       11.3       11.7       11.7       11.7       11.7       11.7       11.7       11.7       11.7       11.7       11.7       11.7        0.0        0.0        0.0        0.0        0.0        0.0        0.0        0.0        0.0        0.0        0.0        0.0      0.1       0.3      26.2      29.3      32.5    422.57
    16     8  2024    47     2     268.3     0.3      0.0    0.0    0.3    0.0      0.0      0.0   -9.90      0.0      0.0    100      0.2      0.2   100      0.3     0.3     100     20.2    1.40      0      0      0      0      0    88.2    88.2      0     0.98      0.2      0.2      0.2   100    35.0     5.260    -9.9    0.000    0.000     100        0.00    0.000    0.000     268.3    268.3    1.40   162.4     589.4     162.7     121.8      60.0      60.0      34.3    0.000     0.000     0.000     0.000     0.000    1.40     0.00    0.00      0   -9.90   -9.00       11.4       11.7       11.7       11.7       11.7       11.7       11.7       11.7       11.7       11.7       11.7       11.7        0.0        0.0        0.0        0.0        0.0        0.0        0.0        0.0        0.0        0.0        0.0        0.0      0.3       0.2      26.5      29.2      31.9    422.57
    17     8  2024    48     2     270.3     2.2      0.0    0.0    2.2    0.0      0.0      0.0   -9.90      0.0      0.0    100      0.2      0.2   100      0.2     0.2     100     19.1    1.42      0      0      0      0      0    89.3    89.3      0     0.98      0.2      0.2      0.2   100    35.0     5.605    -9.9    0.000    0.000     100        0.00    0.000    0.000     270.3    270.3    1.42   166.8     598.2     165.1     123.1      60.6      60.6      34.8    0.000     0.000     0.000     0.000     0.000    1.42     0.00    0.00      0   -9.90   -9.00       13.4       11.7       11.7       11.7       11.7       11.7       11.7       11.7       11.7       11.7       11.7       11.7        0.0        0.0        0.0        0.0        0.0        0.0        0.0        0.0        0.0        0.0        0.0        0.0      2.2       0.2      25.9      27.1      28.4    422.57
    18     8  2024    49     2     270.5     1.0      0.0    0.0    1.0    0.0      0.6      0.0   -9.90      0.0      0.0    100      0.2      0.2   100      0.2     0.2     100     20.3    1.44      0      0      0      0      0    90.2    90.2      0     0.99      0.2      0.2      0.2   100    35.0     5.952    -9.9    0.000    0.000     100        0.00    0.000    0.000     270.5    270.5    1.44   169.4     606.9     167.5     125.3      61.7      61.7      35.3    0.000     0.000     0.000     0.000     0.000    1.44     0.00    0.00      0   -9.90   -9.00       12.7       11.8       11.9       11.8       11.8       11.7       11.7       11.7       11.7       11.7       11.7       11.7        0.0        0.0        0.0        0.0        0.0        0.0        0.0        0.0        0.0        0.0        0.0        0.0      1.0       0.2      26.7      29.0      31.3    422.57
    19     8  2024    50     2     274.8     5.3      0.0    0.0    5.3    0.0      0.9      0.0   -9.90      0.0      0.0    100      0.2      0.2   100      0.2     0.2     100     20.1    1.46      0      0      0      0      0    90.9    90.9      0     1.00      0.2      0.2      0.2   100    35.0     6.301    -9.9    0.000    0.000     100        0.00    0.000    0.000     274.8    274.8    1.46   175.9     615.5     169.9     126.9      62.5      62.5      35.8    0.000     0.000     0.000     0.000     0.000    1.46     0.00    0.00      0   -9.90   -9.00       17.1       11.8       11.8       11.8       11.8       11.7       11.7       11.7       11.7       11.7       11.7       11.7        0.0        0.0        0.0        0.0        0.0        0.0        0.0        0.0        0.0        0.0        0.0        0.0      5.3       0.2      26.4      28.1      29.8    422.57
    20     8  2024    51     2     292.4    22.4      0.0    0.0   20.1    2.3      2.3      0.0   -9.90      0.0      0.0    100      0.2      0.2   100      0.2     0.2     100     19.4    1.48      0      0      0      0      0    91.6    91.6      0     1.00      0.2      0.2      0.2   100    35.0     6.652    -9.9    0.000    0.000     100        0.00    0.000    0.000     292.4    292.4    1.48   195.7     624.2     172.3     128.5      63.2      63.2      36.3    0.000     0.000     0.000     0.000     0.000    1.48     0.00    0.00      0   -9.90   -9.00       32.7       12.1       12.2       12.0       11.9       11.8       11.8       11.8       11.8       11.8       11.7       11.7        0.0        0.0        0.0        0.0        0.0        0.0        0.0        0.0        0.0        0.0        0.0        0.0     22.4       0.2      26.1      27.4      28.6    422.57
    21     8  2024    52     2     291.2     9.5      0.0    0.0    9.4    0.1     10.4      0.0   -9.90      0.0      0.0    100      0.2      0.2   100      0.2     0.2     100     19.7    1.50      0      0      0      0      0    92.1    92.1      0     1.00      0.2      0.2      0.2   100    35.0     7.003    -9.9    0.000    0.000     100        0.00    0.000    0.000     291.2    291.2    1.50   195.7     632.8     174.7     130.7      64.4      64.4      36.8    0.000     0.000     0.000     0.000     0.000    1.50     0.00    0.00      0   -9.90   -9.00       22.0       12.8       13.6       12.9       12.5       12.3       12.1       12.0       12.0       11.9       11.9       11.9        0.0        0.0        0.0        0.0        0.0        0.0        0.0        0.0        0.0        0.0        0.0        0.0      9.5       0.2      25.4      27.9      30.5    422.57
    22     8  2024    53     2     280.8     2.1      0.0    0.0    2.1    0.0     12.2      0.0   -9.90      0.0      0.0    100      0.2      0.2   100      0.2     0.2     100     20.1    1.52      0      0      0      0      0    92.6    92.6      0     1.01      0.2      0.2      0.2   100    35.0     7.356    -9.9    0.000    0.000     100        0.00    0.000    0.000     280.8    280.8    1.52   187.5     641.3     177.0     132.4      65.3      65.3      37.3    0.000     0.000     0.000     0.000     0.000    1.52     0.00    0.00      0   -9.90   -9.00       13.9       12.5       12.8       12.5       12.3       12.2       12.1       12.1       12.0       12.0       11.9       11.9        0.0        0.0        0.0        0.0        0.0        0.0        0.0        0.0        0.0        0.0        0.0        0.0      2.1       0.2      26.2      28.8      31.4    422.57
    23     8  2024    54     2     274.5     1.6      0.0    0.0    1.6    0.0      7.7      0.0   -9.90      0.0      0.0    100      0.3      0.3   100      0.3     0.3     100     20.4    1.54      0      0      0      0      0    93.0    93.0      0     1.01      0.3      0.3      0.3   100    35.0     7.710    -9.9    0.000    0.000     100        0.00    0.000    0.000     274.5    274.5    1.54   184.3     649.8     179.4     134.2      66.2      66.2      37.8    0.000     0.000     0.000     0.000     0.000    1.54     0.00    0.00      0   -9.90   -9.00       13.4       12.0       12.0       12.0       12.0       11.9       11.9       11.9       11.9       11.8       11.8       11.8        0.0        0.0        0.0        0.0        0.0        0.0        0.0        0.0        0.0        0.0        0.0        0.0      1.6       0.2      26.8      29.5      32.2    422.57
    24     8  2024    55     2     270.7     0.1      0.0    0.0    0.1    0.0      3.7      0.0   -9.90      0.0      0.0    100      0.2      0.2   100      0.2     0.2     100     18.8    1.56      0      0      0      0      0    93.3    93.3      0     1.01      0.2      0.2      0.2   100    35.0     8.064    -9.9    0.000    0.000     100        0.00    0.000    0.000     270.7    270.7    1.56   183.4     658.3     181.7     135.7      66.8      66.8      38.3    0.000     0.000     0.000     0.000     0.000    1.56     0.00    0.00      0   -9.90   -9.00       11.7       11.9       11.9       11.8       11.8       11.8       11.8       11.8       11.8       11.8       11.8       11.8        0.0        0.0        0.0        0.0        0.0        0.0        0.0        0.0        0.0        0.0        0.0        0.0      0.1       0.2      25.2      26.8      28.4    422.57
    25     8  2024    56     3     269.1     0.1      0.0    0.0    0.1    0.0      1.5      0.0   -9.90      0.0      0.0    100      0.2      0.2   100      0.2     0.2     100     20.3    1.58      0      0      0      0      0    93.5    93.5      0     1.01      0.2      0.2      0.2   100    35.0     8.420    -9.9    0.000    0.000     100        0.00    0.000    0.000     269.1    269.1    1.58   184.4     666.7     184.0     137.7      67.9      67.9      38.8    0.000     0.000     0.000     0.000     0.000    1.58     0.00    0.00      0   -9.90   -9.00       11.6       11.7       11.7       11.7       11.7       11.7       11.7       11.7       11.7       11.7       11.7       11.7        0.0        0.0        0.0        0.0        0.0        0.0        0.0        0.0        0.0        0.0        0.0        0.0      0.1       0.2      26.5      29.1      31.7    422.57
    26     8  2024    57     3     269.0     0.7      0.0    0.0    0.7    0.0      0.5      0.0   -9.90      0.0      0.0    100      0.3      0.3   100      0.3     0.3     100     19.5    1.60      0      0      0      0      0    93.7    93.7      0     1.01      0.3      0.3      0.3   100    35.0     8.775    -9.9    0.000    0.000     100        0.00    0.000    0.000     269.0    269.0    1.60   186.8     675.1     186.4     139.6      68.8      68.8      39.3    0.000     0.000     0.000     0.000     0.000    1.60     0.00    0.00      0   -9.90   -9.00       12.0       11.7       11.7       11.7       11.7       11.7       11.7       11.7       11.7       11.7       11.7       11.7        0.0        0.0        0.0        0.0        0.0        0.0        0.0        0.0        0.0        0.0        0.0        0.0      0.7       0.3      25.1      28.3      31.5    422.57
    27     8  2024    58     3     271.6     3.0      0.0    0.0    3.0    0.0      0.2      0.0   -9.90      0.0      0.0    100      0.2      0.2   100      0.2     0.2     100     20.1    1.62      0      0      0      0      0    93.9    93.9      0     1.02      0.2      0.2      0.2   100    35.0     9.131     1.5    0.137    0.153     100        0.94    0.000    0.000     271.6    271.6    1.62   191.6     683.5     188.7     141.1      69.6      69.6      39.8    0.000     0.000     0.000     0.000     0.000    1.62     0.00    0.00      0   -9.90   -9.00       14.5       11.7       11.7       11.7       11.7       11.7       11.7       11.7       11.7       11.7       11.7       11.7        0.0        0.0        0.0        0.0        0.0        0.0        0.0        0.0        0.0        0.0        0.0        0.0      3.0       0.2      26.3      28.8      31.4    422.57
    28     8  2024    59     3     270.6     0.3      0.0    0.0    0.3    0.0      1.1      0.0   -9.90      0.0      0.0    100      0.2      0.2   100      0.2     0.2     100     20.8    1.64      0      0      0      0      0    94.0    94.0      0     1.02      0.2      0.2      0.2   100    35.0     9.487     1.8    0.175    0.194     100        1.18    0.000    0.000     270.6    270.6    1.64   192.8     691.8     191.0     142.7      70.3      70.3      40.3    0.000     0.000     0.000     0.000     0.000    1.64     0.00    0.00      0   -9.90   -9.00       11.9       11.9       12.0       11.9       11.8       11.8       11.8       11.7       11.7       11.7       11.7       11.7        0.0        0.0        0.0        0.0        0.0        0.0        0.0        0.0        0.0        0.0        0.0        0.0      0.3       0.2      27.6      29.4      31.2    422.57
    29     8  2024    60     3     269.2     0.1      0.0    0.0    0.1    0.0      1.2      0.0   -9.90      0.0      0.0    100      0.2      0.2   100      0.2     0.2     100     20.4    1.66      0      0      0      0      0    95.2    95.2      0     1.02      0.2      0.2      0.2   100    35.0     9.846     2.3    0.222    0.247     100        1.48    0.000    0.000     269.2    269.2    1.66   193.8     700.1     193.3     144.5      71.2      71.2      40.8    0.000     0.000     0.000     0.000     0.000    1.66     0.00    0.00      0   -9.90   -9.00       11.6       11.7       11.8       11.8       11.8       11.7       11.7       11.7       11.7       11.7       11.7       11.7        0.0        0.0        0.0        0.0        0.0        0.0        0.0        0.0        0.0        0.0        0.0        0.0      0.1       0.2      26.9      29.2      31.6    422.57
    30     8  2024    61     3     268.4     0.0      0.0    0.0    0.0    0.0      0.5      0.0   -9.90      0.0      0.0    100      0.3      0.3   100      0.3     0.3     100     19.8    1.68     -9      0      0      0      0    95.3    95.3      0     1.02      0.3      0.3      0.3   100    35.0    10.205     2.8    0.281    0.312     100        1.84    0.000    0.000     268.4    268.4    1.68   195.3     708.4     195.5     146.4      72.2      72.2      41.3    0.000     0.000     0.000     0.000     0.000    1.68     0.00    0.00      0   -9.90   -9.00       11.3       11.7       11.7       11.7       11.7       11.7       11.7       11.7       11.7       11.7       11.7       11.7        0.0        0.0        0.0        0.0        0.0        0.0        0.0        0.0        0.0        0.0        0.0        0.0      0.0       0.3      25.6      28.5      31.4    422.57
    31     8  2024    62     3     268.5     0.5      0.0    0.0    0.5    0.0      0.2      0.0   -9.90      0.0      0.0    100      0.3      0.3   100      0.3     0.3     100     20.2    1.70     -9      0      0      0      0    95.4    95.4      0     1.02      0.3      0.3      0.3   100    35.0    10.564     3.3    0.354    0.393     100        2.28    0.000    0.000     268.5    268.5    1.70   197.7     716.6     197.8     148.0      73.0      73.0      41.8    0.000     0.000     0.000     0.000     0.000    1.70     0.00    0.00      0   -9.90   -9.00       11.6       11.7       11.7       11.7       11.7       11.7       11.7       11.7       11.7       11.7       11.7       11.7        0.0        0.0        0.0        0.0        0.0        0.0        0.0        0.0        0.0        0.0        0.0        0.0      0.5       0.2      26.4      29.1      31.9    422.57
     1     9  2024    63     3     268.3     0.0      0.0    0.0    0.0    0.0      0.0      0.0   -9.90      0.0      0.0    100      0.2      0.2   100      0.2     0.2     100     20.5    1.71     -9      0      0      0      0    95.5    95.5      0     1.02      0.2      0.2      0.2   100    35.0    10.921     4.1    0.444    0.493     100        2.81    0.000    0.000     268.3    268.3    1.71   199.8     724.8     200.1     149.6      73.8      73.8      42.3    0.000     0.000     0.000     0.000     0.000    1.71     0.00    0.00      0   -9.90   -9.00       11.4       11.7       11.7       11.7       11.7       11.7       11.7       11.7       11.7       11.7       11.7       11.7        0.0        0.0        0.0        0.0        0.0        0.0        0.0        0.0        0.0        0.0        0.0        0.0      0.0       0.2      27.0      29.2      31.5    422.57
     2     9  2024    64     3     268.6     0.5      0.0    0.0    0.5    0.0      0.0      0.0   -9.90      0.0      0.0    100      0.3      0.3   100      0.3     0.3     100     20.1    1.73     -9      0      0      0      0    95.6    95.6      0     1.02      0.3      0.3      0.3   100    35.0    11.278     4.9    0.555    0.616     100        3.46    0.000    0.000     268.6    268.6    1.73   202.3     732.9     202.3     151.4      74.7      74.7      42.7    0.000     0.000     0.000     0.000     0.000    1.73     0.00    0.00      0   -9.90   -9.00       11.7       11.7       11.7       11.7       11.7       11.7       11.7       11.7       11.7       11.7       11.7       11.7        0.0        0.0        0.0        0.0        0.0        0.0        0.0        0.0        0.0        0.0        0.0        0.0      0.5       0.2      26.2      29.0      31.8    422.57
     3     9  2024    65     3     268.3     0.0      0.0    0.0    0.0    0.0      0.0      0.0   -9.90      0.0      0.0    100      0.2      0.2   100      0.2     0.2     100     20.5    1.75     -9      0      0      0      0    95.6    95.6      0     1.02      0.2      0.2      0.2   100    35.0    11.634     5.9    0.689    0.766     100        4.23    0.000    0.000     268.3    268.3    1.75   204.3     741.1     204.6     153.1      75.5      75.5      43.2    0.000     0.000     0.000     0.000     0.000    1.75     0.00    0.00      0   -9.90   -9.00       11.4       11.7       11.7       11.7       11.7       11.7       11.7       11.7       11.7       11.7       11.7       11.7        0.0        0.0        0.0        0.0        0.0        0.0        0.0        0.0        0.0        0.0        0.0        0.0      0.0       0.2      26.9      29.5      32.0    422.57
     4     9  2024    66     3     268.4     0.3      0.0    0.0    0.3    0.0      0.0      0.0   -9.90      0.0      0.0    100      0.2      0.2   100      0.2     0.2     100     20.5    1.77     -9      0      0      0      0    95.7    95.7      0     1.01      0.2      0.2      0.2   100    35.0    11.989     7.1    0.852    0.947     100        5.16    0.000    0.000     268.4    268.4    1.77   206.6     749.2     206.8     154.6      76.2      76.2      43.7    0.000     0.000     0.000     0.000     0.000    1.77     0.00    0.00      0   -9.90   -9.00       11.5       11.7       11.7       11.7       11.7       11.7       11.7       11.7       11.7       11.7       11.7       11.7        0.0        0.0        0.0        0.0        0.0        0.0        0.0        0.0        0.0        0.0        0.0        0.0      0.3       0.2      27.0      29.2      31.4    422.57
     5     9  2024    67     3     268.2     0.0      0.0    0.0    0.0    0.0      0.0      0.0   -9.90      0.0      0.0    100      0.2      0.2   100      0.2     0.2     100     20.3    1.79     -9      0      0      0      0    95.7    95.7      0     1.01      0.2      0.2      0.2   100    35.0    12.343     8.5    1.046    1.162     100        6.25    0.000    0.000     268.2    268.2    1.79   208.7     757.2     209.0     156.2      77.0      77.0      44.2    0.000     0.000     0.000     0.000     0.000    1.79     0.00    0.00      0   -9.90   -9.00       11.3       11.7       11.7       11.7       11.7       11.7       11.7       11.7       11.7       11.7       11.7       11.7        0.0        0.0        0.0        0.0        0.0        0.0        0.0        0.0        0.0        0.0        0.0        0.0      0.0       0.2      26.6      28.7      30.8    422.57
     6     9  2024    68     3     268.0     0.0      0.0    0.0    0.0    0.0      0.0      0.0   -9.90      0.0      0.0    100      0.2      0.2   100      0.2     0.2     100     20.0    1.81     -9      0      0      0      0    95.8    95.8      0     1.01      0.2      0.2      0.2   100    35.0    12.697    10.0    1.269    1.410     100        7.49    0.000    0.000     268.0    268.0    1.81   210.7     765.3     211.2     157.9      77.8      77.8      44.6    0.000     0.000     0.000     0.000     0.000    1.81     0.00    0.00      0   -9.90   -9.00       11.1       11.7       11.7       11.7       11.7       11.7       11.7       11.7       11.7       11.7       11.7       11.7        0.0        0.0        0.0        0.0        0.0        0.0        0.0        0.0        0.0        0.0        0.0        0.0      0.0       0.2      26.0      28.1      30.1    422.57
     7     9  2024    69     4     267.8     0.0      0.0    0.0    0.0    0.0      0.0      0.0   -9.90      0.0      0.0    100      0.2      0.2   100      0.2     0.2     100     19.6    1.83     -9      0      0      0      0    95.8    95.8      0     1.01      0.2      0.2      0.2   100    35.0    13.049    11.5    1.502    1.669     100        8.74    0.000    0.000     267.8    267.8    1.83   212.7     773.3     213.5     159.7      78.8      78.8      45.1    0.000     0.000     0.000     0.000     0.000    1.83     0.00    0.00      0   -9.90   -9.00       10.9       11.7       11.7       11.7       11.7       11.7       11.7       11.7       11.7       11.7       11.7       11.7        0.0        0.0        0.0        0.0        0.0        0.0        0.0        0.0        0.0        0.0        0.0        0.0      0.0       0.2      25.1      27.7      30.3    422.57
     8     9  2024    70     4     267.6     0.0      0.0    0.0    0.0    0.0      0.0      0.0   -9.90      0.0      0.0    100      0.3      0.3   100      0.3     0.3     100     19.4    1.85     -9      0      0      0      0    95.8    95.8      0     1.00      0.3      0.3      0.3   100    35.0    13.401    13.0    1.747    1.941     100       10.01    0.000    0.000     267.6    267.6    1.85   214.6     781.3     215.7     161.6      79.7      79.7      45.6    0.000     0.000     0.000     0.000     0.000    1.85     0.00    0.00      0   -9.90   -9.00       10.7       11.7       11.7       11.7       11.7       11.7       11.7       11.7       11.7       11.7       11.7       11.7        0.0        0.0        0.0        0.0        0.0        0.0        0.0        0.0        0.0        0.0        0.0        0.0      0.0       0.3      24.8      28.1      31.4    422.57
     9     9  2024    71     4     267.9     0.6      0.0    0.0    0.6    0.0      0.0      0.0   -9.90      0.0      0.0    100      0.2      0.2   100      0.2     0.2     100     19.8    1.87     -9      0      0      0      0    95.9    95.9      0     1.00      0.2      0.2      0.2   100    35.0    13.751    14.6    2.001    2.224     100       11.31    0.000    0.000     267.9    267.9    1.87   217.2     789.2     217.9     163.0      80.4      80.4      46.1    0.000     0.000     0.000     0.000     0.000    1.87     0.00    0.00      0   -9.90   -9.00       11.0       11.7       11.7       11.7       11.7       11.7       11.7       11.7       11.7       11.7       11.7       11.7        0.0        0.0        0.0        0.0        0.0        0.0        0.0        0.0        0.0        0.0        0.0        0.0      0.6       0.2      25.5      28.1      30.8    422.57
    10     9  2024    72     4     269.3     1.7      0.0    0.0    1.7    0.0      0.0      0.0   -9.90      0.0      0.0    100      0.3      0.3   100      0.3     0.3     100     19.6    1.89     -9      0      0      0      0    95.9    95.9      0     1.00      0.3      0.3      0.3   100    35.0    14.101    16.1    2.267    2.518     100       12.61    0.000    0.000     269.3    269.3    1.89   220.8     797.2     220.0     164.9      81.4      81.4      46.5    0.000     0.000     0.000     0.000     0.000    1.89     0.00    0.00      0   -9.90   -9.00       12.4       11.7       11.7       11.7       11.7       11.7       11.7       11.7       11.7       11.7       11.7       11.7        0.0        0.0        0.0        0.0        0.0        0.0        0.0        0.0        0.0        0.0        0.0        0.0      1.7       0.3      25.2      28.8      32.5    422.57
    11     9  2024    73     4     275.0     6.2      0.0    0.0    6.2    0.0      0.2      0.0   -9.90      0.0      0.0    100      0.2      0.2   100      0.2     0.2     100     20.2    1.90     -9      0      0      0      0    95.9    95.9      0     0.99      0.2      0.2      0.2   100    35.0    14.449    17.6    2.542    2.825     100       13.95    0.000    0.000     275.0    275.0    1.90   228.7     805.1     222.2     166.3      82.0      82.0      47.0    0.000     0.000     0.000     0.000     0.000    1.90     0.00    0.00      0   -9.90   -9.00       17.9       11.8       11.8       11.7       11.7       11.7       11.7       11.7       11.7       11.7       11.7       11.7        0.0        0.0        0.0        0.0        0.0        0.0        0.0        0.0        0.0        0.0        0.0        0.0      6.2       0.2      26.3      29.0      31.6    422.57
    12     9  2024    74     4     274.4     2.0      0.0    0.0    2.0    0.0      2.3      0.0   -9.90      0.0      0.0    100      0.3      0.3   100      0.3     0.3     100     19.8    1.92     -9      0      0      0      0    95.9    95.9      0     0.99      0.3      0.3      0.3   100    35.0    14.797    19.1    2.828    3.143     100       15.31    0.000    0.000     274.4    274.4    1.92   230.1     813.0     224.4     168.0      82.9      82.9      47.5    0.000     0.000     0.000     0.000     0.000    1.92     0.00    0.00      0   -9.90   -9.00       13.7       12.2       12.3       12.1       12.0       11.8       11.8       11.8       11.8       11.8       11.7       11.7        0.0        0.0        0.0        0.0        0.0        0.0        0.0        0.0        0.0        0.0        0.0        0.0      2.0       0.3      25.7      28.6      31.5    422.57
    13     9  2024    75     4     271.1     0.0      0.0    0.0    0.0    0.0      3.0      0.0   -9.90      0.0      0.0    100      0.2      0.2   100      0.2     0.2     100     19.8    1.94     -9      0      0      0      0    95.9    95.9      0     0.99      0.2      0.2      0.2   100    35.0    15.144    20.6    3.125    3.472     100       16.69    0.000    0.000     271.1    271.1    1.94   228.9     820.8     226.6     169.6      83.7      83.7      47.9    0.000     0.000     0.000     0.000     0.000    1.94     0.00    0.00      0   -9.90   -9.00       11.7       11.9       12.0       11.9       11.9       11.8       11.8       11.8       11.8       11.8       11.8       11.7        0.0        0.0        0.0        0.0        0.0        0.0        0.0        0.0        0.0        0.0        0.0        0.0      0.0       0.2      25.6      28.4      31.2    422.57
    14     9  2024    76     4     269.3     0.1      0.0    0.0    0.1    0.0      1.7      0.0   -9.90      0.0      0.0    100      0.3      0.3   100      0.3     0.3     100     20.2    1.96     -9      0     -9      0      0    95.3    95.3      0     0.98      0.3      0.3      0.3   100    35.0    15.486    22.2    3.431    3.812     100       18.07    0.000    0.000     269.3    269.3    1.96   229.3     828.6     228.7     171.3      84.5      84.5      48.4    0.000     0.000     0.000     0.000     0.000    1.96     0.00    0.00      0   -9.90   -9.00       11.5       11.7       11.8       11.7       11.7       11.7       11.7       11.7       11.7       11.7       11.7       11.7        0.0        0.0        0.0        0.0        0.0        0.0        0.0        0.0        0.0        0.0        0.0        0.0      0.1       0.3      26.3      29.3      32.4    422.57
    15     9  2024    77     4     275.1     6.7      0.0    0.0    6.7    0.0      0.6      0.0   -9.90      0.0      0.0    100      0.2      0.2   100      0.2     0.2     100     19.2    1.98     -9      0     -9      0      0    94.6    94.6      0     0.96      0.2      0.2      0.2   100    35.0    15.823    23.7    3.746    4.162     100       19.54    0.000    0.000     275.1    275.1    1.98   237.4     836.4     230.9     172.4      85.0      85.0      48.8    0.000     0.000     0.000     0.000     0.000    1.98     0.00    0.00      0   -9.90   -9.00       18.2       11.7       11.7       11.7       11.7       11.7       11.7       11.7       11.7       11.7       11.7       11.7        0.0        0.0        0.0        0.0        0.0        0.0        0.0        0.0        0.0        0.0        0.0        0.0      6.7       0.2      25.5      27.2      28.9    422.57
    16     9  2024    78     4     275.9     3.3      0.0    0.0    3.3    0.0      2.4      0.0   -9.90      0.0      0.0    100      0.2      0.2   100      0.2     0.2     100     19.9    2.00     -9      0     -9      0      0    93.9    93.9      0     0.95      0.2      0.2      0.2   100    35.0    16.155    25.2    4.070    4.523     100       21.01    0.000    0.000     275.9    275.9    2.00   240.2     844.2     233.0     174.2      85.9      85.9      49.3    0.000     0.000     0.000     0.000     0.000    2.00     0.00    0.00      0   -9.90   -9.00       15.3       12.2       12.3       12.0       11.9       11.8       11.8       11.8       11.8       11.8       11.7       11.7        0.0        0.0        0.0        0.0        0.0        0.0        0.0        0.0        0.0        0.0        0.0        0.0      3.3       0.2      25.8      27.9      29.9    422.57
    17     9  2024    79     4     280.1     8.0      0.0    0.0    7.9    0.1      3.5      0.0   -9.90      0.0      0.0    100      0.2      0.2   100      0.2     0.2     100     18.5    2.01     -9      0     -9      0      0    93.0    93.0      0     0.93      0.2      0.2      0.2   100    35.0    16.481    26.7    4.403    4.892     100       22.54    0.000    0.000     280.1    280.1    2.01   246.6     852.0     235.2     175.5      86.5      86.5      49.8    0.000     0.000     0.000     0.000     0.000    2.01     0.00    0.00      0   -9.90   -9.00       20.1       12.0       12.1       12.0       11.9       11.9       11.8       11.8       11.8       11.8       11.8       11.8        0.0        0.0        0.0        0.0        0.0        0.0        0.0        0.0        0.0        0.0        0.0        0.0      8.0       0.2      25.2      26.5      27.9    422.57
    18     9  2024    80     4     291.6    18.1      0.0    0.0   16.8    1.3      5.1      0.0   -9.90      0.0      0.0    100      0.2      0.2   100      0.2     0.2     100     19.8    2.03     -9      0     -9      0      0    92.0    92.0      0     0.91      0.2      0.2      0.2   100    35.0    16.801    28.2    4.744    5.271     100       24.02    0.000    0.000     291.6    291.6    2.03   260.1     859.7     237.3     177.5      87.6      87.6      50.2    0.000     0.000     0.000     0.000     0.000    2.03     0.00    0.00      0   -9.90   -9.00       29.4       12.4       12.5       12.2       12.0       12.0       11.9       11.9       11.8       11.8       11.8       11.8        0.0        0.0        0.0        0.0        0.0        0.0        0.0        0.0        0.0        0.0        0.0        0.0     18.1       0.2      25.6      28.0      30.4    422.57
    19     9  2024    81     4     281.0     0.3      0.0    0.0    0.3    0.0     10.8      0.0   -9.90      0.0      0.0    100      0.2      0.2   100      0.2     0.2     100     20.0    2.05     -9      0     -9      0      0    90.9    90.9      0     0.89      0.2      0.2      0.2   100    35.0    17.113    29.8    5.092    5.658     100       25.53    0.000    0.000     281.0    281.0    2.05   251.4     867.4     239.4     178.9      88.3      88.3      50.7    0.000     0.000     0.000     0.000     0.000    2.05     0.00    0.00      0   -9.90   -9.00       12.6       12.8       13.4       12.7       12.4       12.3       12.1       12.0       12.0       11.9       11.9       11.9        0.0        0.0        0.0        0.0        0.0        0.0        0.0        0.0        0.0        0.0        0.0        0.0      0.3       0.2      25.9      28.0      30.0    422.57
    20     9  2024    82     4     274.3     1.4      0.0    0.0    1.4    0.0      7.8      0.0   -9.90      0.0      0.0    100      0.2      0.2   100      0.2     0.2     100     19.6    2.07     -9      0     -9      0      0    89.6    89.6      0     0.87      0.2      0.2      0.2   100    35.0    17.418    31.3    5.448    6.053     100       27.01    0.000    0.000     274.3    274.3    2.07   247.0     875.1     241.5     180.8      89.2      89.2      51.1    0.000     0.000     0.000     0.000     0.000    2.07     0.00    0.00      0   -9.90   -9.00       13.0       11.9       12.1       12.0       12.0       12.0       11.9       11.9       11.9       11.8       11.8       11.8        0.0        0.0        0.0        0.0        0.0        0.0        0.0        0.0        0.0        0.0        0.0        0.0      1.4       0.2      25.1      27.9      30.6    422.57
    21     9  2024    83     4     270.8     0.5      0.0    0.0    0.5    0.0      3.8      0.0   -9.90      0.0      0.0    100      0.2      0.2   100      0.2     0.2     100     19.8    2.09     -9      0     -9      0      0    88.2    88.2      0     0.84      0.2      0.2      0.2   100    35.0    17.714    32.8    5.810    6.455     100       28.50    0.000    0.000     270.8    270.8    2.09   245.8     882.8     243.7     182.3      90.0      90.0      51.6    0.000     0.000     0.000     0.000     0.000    2.09     0.00    0.00      0   -9.90   -9.00       12.0       11.8       11.8       11.8       11.8       11.8       11.8       11.8       11.8       11.8       11.8       11.8        0.0        0.0        0.0        0.0        0.0        0.0        0.0        0.0        0.0        0.0        0.0        0.0      0.5       0.2      25.6      28.2      30.9    422.57
    22     9  2024    84     4     281.0    12.3      0.0    0.0   11.9    0.4      1.5      0.0   -9.90      0.0      0.0    100      0.2      0.2   100      0.2     0.2     100     20.0    2.10     -9      0     -9      0      0    86.6    86.6      0     0.82      0.2      0.2      0.2   100    35.0    18.001    34.3    6.177    6.864     100       30.02    0.000    0.000     281.0    281.0    2.10   258.2     890.4     245.8     183.8      90.6      90.6      52.0    0.000     0.000     0.000     0.000     0.000    2.10     0.00    0.00      0   -9.90   -9.00       23.7       11.7       11.8       11.7       11.7       11.7       11.7       11.7       11.7       11.7       11.7       11.7        0.0        0.0        0.0        0.0        0.0        0.0        0.0        0.0        0.0        0.0        0.0        0.0     12.3       0.2      26.0      28.2      30.5    422.57
    23     9  2024    85     4     284.5     8.7      0.0    0.0    8.6    0.1      4.8      0.0   -9.90      0.0      0.0    100      0.2      0.2   100      0.3     0.3     100     19.7    2.12     -9      0     -9      0      0    84.8    84.8      0     0.79      0.2      0.2      0.2   100    35.0    18.277    35.8    6.550    7.278     100       31.45    0.000    0.000     284.5    284.5    2.12   263.7     898.0     247.9     185.9      91.7      91.7      52.5    0.000     0.000     0.000     0.000     0.000    2.12     0.00    0.00      0   -9.90   -9.00       21.2       12.5       12.8       12.3       12.1       12.0       11.9       11.9       11.8       11.8       11.8       11.8        0.0        0.0        0.0        0.0        0.0        0.0        0.0        0.0        0.0        0.0        0.0        0.0      8.7       0.3      25.3      29.0      32.7    422.57
    24     9  2024    86     4     278.9     2.2      0.0    0.0    2.2    0.0      7.7      0.0   -9.90      0.0      0.0    100      0.2      0.2   100      0.2     0.2     100     19.8    2.14     -9      0     -9      0      0    82.8    82.8      0     0.76      0.2      0.2      0.2   100    35.0    18.542    37.4    6.927    7.697     100       32.96    0.000    0.000     278.9    278.9    2.14   260.0     905.6     250.0     186.9      92.2      92.2      52.9    0.000     0.000     0.000     0.000     0.000    2.14     0.00    0.00      0   -9.90   -9.00       14.1       12.5       12.7       12.3       12.2       12.1       12.0       12.0       11.9       11.9       11.9       11.8        0.0        0.0        0.0        0.0        0.0        0.0        0.0        0.0        0.0        0.0        0.0        0.0      2.2       0.2      25.6      27.8      30.1    422.57
    25     9  2024    87     4     285.0    12.9      0.0    0.0   12.4    0.5      6.1      0.0   -9.90      0.0      0.0    100      0.2      0.2   100      0.2     0.2     100     19.6    2.16     -9      0     -9      0      0    80.5    80.5      0     0.72      0.2      0.2      0.2   100    35.0    18.795    38.9    7.307    8.119     100       34.45    0.000    0.000     285.0    285.0    2.16   268.4     913.2     252.1     188.6      93.1      93.1      53.4    0.000     0.000     0.000     0.000     0.000    2.16     0.00    0.00      0   -9.90   -9.00       24.5       12.0       12.0       12.0       11.9       11.9       11.9       11.9       11.8       11.8       11.8       11.8        0.0        0.0        0.0        0.0        0.0        0.0        0.0        0.0        0.0        0.0        0.0        0.0     12.9       0.2      25.1      27.9      30.6    422.57
[...]
    10    12  2025    -9     0     263.2     0.0      0.0    0.0    0.0    0.0      0.0      0.0   -9.90      0.4      0.2     65      0.0      0.0   100      0.4     0.2      65     17.0    2.28     -9     -9     -9      0     -9     0.0     0.0      0    -9.00      0.0      0.0      0.0   100    35.1    20.220    48.0    9.706   10.784     100       41.58    0.000    0.000     263.2    263.2    2.28   261.2     965.7     266.5     199.9      98.8      98.7      56.5    0.000     0.000     0.000     0.000     0.000    2.28     0.00    0.00      0   -9.90   -9.00        6.3       11.7       11.7       11.7       11.7       11.7       11.7       11.7       11.7       11.7       11.7       11.7        0.0        0.0        0.0        0.0        0.0        0.0        0.0        0.0        0.0        0.0        0.0        0.0      0.0       0.3      20.1      25.4      30.7    424.57
    11    12  2025    -9     0     263.0     0.0      0.0    0.0    0.0    0.0      0.0      0.0   -9.90      0.4      0.2     60      0.0      0.0   100      0.4     0.2      60     16.8    2.28     -9     -9     -9      0     -9     0.0     0.0      0    -9.00      0.0      0.0      0.0   100    35.1    20.220    48.0    9.706   10.784     100       41.58    0.000    0.000     263.0    263.0    2.28   261.0     965.7     266.5     199.9      98.8      98.7      56.5    0.000     0.000     0.000     0.000     0.000    2.28     0.00    0.00      0   -9.90   -9.00        6.0       11.7       11.7       11.7       11.7       11.7       11.7       11.7       11.7       11.7       11.7       11.7        0.0        0.0        0.0        0.0        0.0        0.0        0.0        0.0        0.0        0.0        0.0        0.0      0.0       0.3      19.7      25.2      30.6    424.57
    12    12  2025    -9     0     262.8     0.0      0.0    0.0    0.0    0.0      0.0      0.0   -9.90      0.4      0.2     55      0.0      0.0   100      0.4     0.2      55     16.2    2.28     -9     -9     -9      0     -9     0.0     0.0      0    -9.00      0.0      0.0      0.0   100    35.1    20.220    48.0    9.706   10.784     100       41.58    0.000    0.000     262.8    262.8    2.28   260.8     965.7     266.5     199.9      98.9      98.7      56.5    0.000     0.000     0.000     0.000     0.000    2.28     0.00    0.00      0   -9.90   -9.00        5.8       11.7       11.7       11.7       11.7       11.7       11.7       11.7       11.7       11.7       11.7       11.7        0.0        0.0        0.0        0.0        0.0        0.0        0.0        0.0        0.0        0.0        0.0        0.0      0.0       0.3      18.5      24.5      30.6    424.57
    13    12  2025    -9     0     262.7     0.0      0.0    0.0    0.0    0.0      0.0      0.0   -9.90      0.3      0.2     52      0.0      0.0   100      0.3     0.2      52     15.4    2.28     -9     -9     -9      0     -9     0.0     0.0      0    -9.00      0.0      0.0      0.0   100    35.1    20.220    48.0    9.706   10.784     100       41.58    0.000    0.000     262.7    262.7    2.28   260.6     965.7     266.5     199.9      98.6      98.7      56.5    0.000     0.000     0.000     0.000     0.000    2.28     0.00    0.00      0   -9.90   -9.00        5.7       11.7       11.7       11.7       11.7       11.7       11.7       11.7       11.7       11.7       11.7       11.7        0.0        0.0        0.0        0.0        0.0        0.0        0.0        0.0        0.0        0.0        0.0        0.0      0.0       0.3      18.8      23.4      28.0    424.57
    14    12  2025    -9     0     262.5     0.0      0.0    0.0    0.0    0.0      0.0      0.0   -9.90      0.3      0.1     49      0.0      0.0   100      0.3     0.1      49     13.3    2.28     -9     -9     -9      0     -9     0.0     0.0      0    -9.00      0.0      0.0      0.0   100    35.1    20.220    48.0    9.706   10.784     100       41.58    0.000    0.000     262.5    262.5    2.28   260.5     965.7     266.5     199.9      98.5      98.7      56.5    0.000     0.000     0.000     0.000     0.000    2.28     0.00    0.00      0   -9.90   -9.00        5.5       11.7       11.7       11.7       11.7       11.7       11.7       11.7       11.7       11.7       11.7       11.7        0.0        0.0        0.0        0.0        0.0        0.0        0.0        0.0        0.0        0.0        0.0        0.0      0.0       0.2      17.5      21.3      25.2    424.57
    15    12  2025    -9     0     262.4     0.0      0.0    0.0    0.0    0.0      0.0      0.0   -9.90      0.3      0.2     47      0.0      0.0   100      0.3     0.2      47     13.4    2.28     -9     -9     -9      0     -9     0.0     0.0      0    -9.00      0.0      0.0      0.0   100    35.1    20.220    48.0    9.706   10.784     100       41.58    0.000    0.000     262.4    262.4    2.28   260.3     965.7     266.5     199.9      98.8      98.7      56.5    0.000     0.000     0.000     0.000     0.000    2.28     0.00    0.00      0   -9.90   -9.00        5.4       11.7       11.7       11.7       11.7       11.7       11.7       11.7       11.7       11.7       11.7       11.7        0.0        0.0        0.0        0.0        0.0        0.0        0.0        0.0        0.0        0.0        0.0        0.0      0.0       0.3      15.3      21.4      27.5    424.57
    16    12  2025    -9     0     262.2     0.0      0.0    0.0    0.0    0.0      0.0      0.0   -9.90      0.4      0.2     44      0.0      0.0   100      0.4     0.2      44     15.3    2.28     -9     -9     -9      0     -9     0.0     0.0      0    -9.00      0.0      0.0      0.0   100    35.1    20.220    48.0    9.706   10.784     100       41.58    0.000    0.000     262.2    262.2    2.28   260.2     965.7     266.5     199.9      98.8      98.7      56.5    0.000     0.000     0.000     0.000     0.000    2.28     0.00    0.00      0   -9.90   -9.00        5.2       11.7       11.7       11.7       11.7       11.7       11.7       11.7       11.7       11.7       11.7       11.7        0.0        0.0        0.0        0.0        0.0        0.0        0.0        0.0        0.0        0.0        0.0        0.0      0.0       0.3      17.3      23.3      29.2    424.57
    17    12  2025    -9     0     262.1     0.0      0.0    0.0    0.0    0.0      0.0      0.0   -9.90      0.3      0.1     42      0.0      0.0   100      0.3     0.1      42     14.6    2.28     -9     -9     -9      0     -9     0.0     0.0      0    -9.00      0.0      0.0      0.0   100    35.1    20.220    48.0    9.706   10.784     100       41.58    0.000    0.000     262.1    262.1    2.28   260.0     965.7     266.5     199.9      98.7      98.7      56.5    0.000     0.000     0.000     0.000     0.000    2.28     0.00    0.00      0   -9.90   -9.00        5.1       11.7       11.7       11.7       11.7       11.7       11.7       11.7       11.7       11.7       11.7       11.7        0.0        0.0        0.0        0.0        0.0        0.0        0.0        0.0        0.0        0.0        0.0        0.0      0.0       0.3      17.6      22.6      27.7    424.57
    18    12  2025    -9     0     262.0     0.0      0.0    0.0    0.0    0.0      0.0      0.0   -9.90      0.3      0.1     40      0.0      0.0   100      0.3     0.1      40     14.0    2.28     -9     -9     -9      0     -9     0.0     0.0      0    -9.00      0.0      0.0      0.0   100    35.1    20.220    48.0    9.706   10.784     100       41.58    0.000    0.000     262.0    262.0    2.28   259.9     965.7     266.5     199.9      98.5      98.7      56.5    0.000     0.000     0.000     0.000     0.000    2.28     0.00    0.00      0   -9.90   -9.00        5.0       11.7       11.7       11.7       11.7       11.7       11.7       11.7       11.7       11.7       11.7       11.7        0.0        0.0        0.0        0.0        0.0        0.0        0.0        0.0        0.0        0.0        0.0        0.0      0.0       0.3      18.0      22.0      26.0    424.57
    19    12  2025    -9     0     261.8     0.0      0.0    0.0    0.0    0.0      0.0      0.0   -9.90      0.3      0.1     38      0.0      0.0   100      0.3     0.1      38     13.6    2.28     -9     -9     -9      0     -9     0.0     0.0      0    -9.00      0.0      0.0      0.0   100    35.1    20.220    48.0    9.706   10.784     100       41.58    0.000    0.000     261.8    261.8    2.28   259.8     965.7     266.5     199.9      98.7      98.7      56.5    0.000     0.000     0.000     0.000     0.000    2.28     0.00    0.00      0   -9.90   -9.00        4.8       11.7       11.7       11.7       11.7       11.7       11.7       11.7       11.7       11.7       11.7       11.7        0.0        0.0        0.0        0.0        0.0        0.0        0.0        0.0        0.0        0.0        0.0        0.0      0.0       0.3      15.9      21.6      27.3    424.57
    20    12  2025    -9     0     261.7     0.0      0.0    0.0    0.0    0.0      0.0      0.0   -9.90      0.4      0.1     37      0.0      0.0   100      0.4     0.1      37     14.5    2.28     -9     -9     -9      0     -9     0.0     0.0      0    -9.00      0.0      0.0      0.0   100    35.1    20.220    48.0    9.706   10.784     100       41.58    0.000    0.000     261.7    261.7    2.28   259.7     965.7     266.5     199.9      98.8      98.7      56.5    0.000     0.000     0.000     0.000     0.000    2.28     0.00    0.00      0   -9.90   -9.00        4.7       11.7       11.7       11.7       11.7       11.7       11.7       11.7       11.7       11.7       11.7       11.7        0.0        0.0        0.0        0.0        0.0        0.0        0.0        0.0        0.0        0.0        0.0        0.0      0.0       0.3      16.1      22.5      28.9    424.57
    21    12  2025    -9     0     261.6     0.0      0.0    0.0    0.0    0.0      0.0      0.0   -9.90      0.4      0.1     35      0.0      0.0   100      0.4     0.1      35     14.8    2.28     -9     -9     -9      0     -9     0.0     0.0      0    -9.00      0.0      0.0      0.0   100    35.1    20.220    48.0    9.706   10.784     100       41.58    0.000    0.000     261.6    261.6    2.28   259.5     965.7     266.5     199.9      98.9      98.7      56.5    0.000     0.000     0.000     0.000     0.000    2.28     0.00    0.00      0   -9.90   -9.00        4.6       11.7       11.7       11.7       11.7       11.7       11.7       11.7       11.7       11.7       11.7       11.7        0.0        0.0        0.0        0.0        0.0        0.0        0.0        0.0        0.0        0.0        0.0        0.0      0.0       0.3      16.2      22.8      29.4    424.57
    22    12  2025    -9     0     261.5     0.0      0.0    0.0    0.0    0.0      0.0      0.0   -9.90      0.3      0.1     33      0.0      0.0   100      0.3     0.1      33     15.4    2.28     -9     -9     -9      0     -9     0.0     0.0      0    -9.00      0.0      0.0      0.0   100    35.1    20.220    48.0    9.706   10.784     100       41.58    0.000    0.000     261.5    261.5    2.28   259.4     965.7     266.5     199.9      98.8      98.7      56.5    0.000     0.000     0.000     0.000     0.000    2.28     0.00    0.00      0   -9.90   -9.00        4.5       11.7       11.7       11.7       11.7       11.7       11.7       11.7       11.7       11.7       11.7       11.7        0.0        0.0        0.0        0.0        0.0        0.0        0.0        0.0        0.0        0.0        0.0        0.0      0.0       0.3      17.8      23.4      29.1    424.57
    23    12  2025    -9     0     261.4     0.0      0.0    0.0    0.0    0.0      0.0      0.0   -9.90      0.3      0.1     32      0.0      0.0   100      0.3     0.1      32     15.5    2.28     -9     -9     -9      0     -9     0.0     0.0      0    -9.00      0.0      0.0      0.0   100    35.1    20.220    48.0    9.706   10.784     100       41.58    0.000    0.000     261.4    261.4    2.28   259.3     965.7     266.5     199.9      98.7      98.7      56.5    0.000     0.000     0.000     0.000     0.000    2.28     0.00    0.00      0   -9.90   -9.00        4.3       11.7       11.7       11.7       11.7       11.7       11.7       11.7       11.7       11.7       11.7       11.7        0.0        0.0        0.0        0.0        0.0        0.0        0.0        0.0        0.0        0.0        0.0        0.0      0.0       0.3      18.1      23.5      28.8    424.57
    24    12  2025    -9     0     261.3     0.0      0.0    0.0    0.0    0.0      0.0      0.0   -9.90      0.3      0.1     31      0.0      0.0   100      0.3     0.1      31     15.5    2.28     -9     -9     -9      0     -9     0.0     0.0      0    -9.00      0.0      0.0      0.0   100    35.1    20.220    48.0    9.706   10.784     100       41.58    0.000    0.000     261.3    261.3    2.28   259.2     965.7     266.5     199.9      98.6      98.7      56.5    0.000     0.000     0.000     0.000     0.000    2.28     0.00    0.00      0   -9.90   -9.00        4.3       11.7       11.7       11.7       11.7       11.7       11.7       11.7       11.7       11.7       11.7       11.7        0.0        0.0        0.0        0.0        0.0        0.0        0.0        0.0        0.0        0.0        0.0        0.0      0.0       0.3      19.2      23.5      27.9    424.57
    25    12  2025    -9     0     261.2     0.0      0.0    0.0    0.0    0.0      0.0      0.0   -9.90      0.3      0.1     30      0.0      0.0   100      0.3     0.1      30     14.5    2.28     -9     -9     -9      0     -9     0.0     0.0      0    -9.00      0.0      0.0      0.0   100    35.1    20.220    48.0    9.706   10.784     100       41.58    0.000    0.000     261.2    261.2    2.28   259.1     965.7     266.5     199.9      98.4      98.7      56.5    0.000     0.000     0.000     0.000     0.000    2.28     0.00    0.00      0   -9.90   -9.00        4.2       11.7       11.7       11.7       11.7       11.7       11.7       11.7       11.7       11.7       11.7       11.7        0.0        0.0        0.0        0.0        0.0        0.0        0.0        0.0        0.0        0.0        0.0        0.0      0.0       0.2      19.1      22.5      26.0    424.57
    26    12  2025    -9     0     261.1     0.0      0.0    0.0    0.0    0.0      0.0      0.0   -9.90      0.3      0.1     29      0.0      0.0   100      0.3     0.1      29     14.2    2.28     -9     -9     -9      0     -9     0.0     0.0      0    -9.00      0.0      0.0      0.0   100    35.1    20.220    48.0    9.706   10.784     100       41.58    0.000    0.000     261.1    261.1    2.28   259.0     965.7     266.5     199.9      98.7      98.7      56.5    0.000     0.000     0.000     0.000     0.000    2.28     0.00    0.00      0   -9.90   -9.00        4.1       11.7       11.7       11.7       11.7       11.7       11.7       11.7       11.7       11.7       11.7       11.7        0.0        0.0        0.0        0.0        0.0        0.0        0.0        0.0        0.0        0.0        0.0        0.0      0.0       0.3      16.5      22.2      27.9    424.57
    27    12  2025    -9     0     261.0     0.0      0.0    0.0    0.0    0.0      0.0      0.0   -9.90      0.4      0.1     32      0.0      0.0   100      0.4     0.1      32     14.2    2.28     -9     -9     -9      0     -9     0.0     0.0      0    -9.00      0.0      0.0      0.0   100    35.1    20.220    48.0    9.706   10.784     100       41.58    0.000    0.000     261.0    261.0    2.28   259.0     965.7     266.5     199.9      98.8      98.7      56.5    0.000     0.000     0.000     0.000     0.000    2.28     0.00    0.00      0   -9.90   -9.00        4.0       11.7       11.7       11.7       11.7       11.7       11.7       11.7       11.7       11.7       11.7       11.7        0.0        0.0        0.0        0.0        0.0        0.0        0.0        0.0        0.0        0.0        0.0        0.0      0.0       0.3      15.9      22.2      28.5    424.57
    28    12  2025    -9     0     260.9     0.0      0.0    0.0    0.0    0.0      0.0      0.0   -9.90      0.4      0.1     27      0.0      0.0   100      0.4     0.1      27     15.0    2.28     -9     -9     -9      0     -9     0.0     0.0      0    -9.00      0.0      0.0      0.0   100    35.1    20.220    48.0    9.706   10.784     100       41.58    0.000    0.000     260.9    260.9    2.28   258.9     965.7     266.5     199.9      98.9      98.7      56.5    0.000     0.000     0.000     0.000     0.000    2.28     0.00    0.00      0   -9.90   -9.00        3.9       11.7       11.7       11.7       11.7       11.7       11.7       11.7       11.7       11.7       11.7       11.7        0.0        0.0        0.0        0.0        0.0        0.0        0.0        0.0        0.0        0.0        0.0        0.0      0.0       0.3      16.2      23.0      29.7    424.57
    29    12  2025    -9     0     260.8     0.0      0.0    0.0    0.0    0.0      0.0      0.0   -9.90      0.4      0.1     26      0.0      0.0   100      0.4     0.1      26     15.8    2.28     -9     -9     -9      0     -9     0.0     0.0      0    -9.00      0.0      0.0      0.0   100    35.1    20.220    48.0    9.706   10.784     100       41.58    0.000    0.000     260.8    260.8    2.28   258.8     965.7     266.5     199.9      99.0      98.7      56.5    0.000     0.000     0.000     0.000     0.000    2.28     0.00    0.00      0   -9.90   -9.00        3.8       11.7       11.7       11.7       11.7       11.7       11.7       11.7       11.7       11.7       11.7       11.7        0.0        0.0        0.0        0.0        0.0        0.0        0.0        0.0        0.0        0.0        0.0        0.0      0.0       0.3      17.5      24.5      31.4    424.57
    30    12  2025    -9     0     260.7     0.0      0.0    0.0    0.0    0.0      0.0      0.0   -9.90      0.4      0.1     25      0.0      0.0   100      0.4     0.1      25     16.9    2.28     -9     -9     -9      0     -9     0.0     0.0      0    -9.00      0.0      0.0      0.0   100    35.1    20.220    48.0    9.706   10.784     100       41.58    0.000    0.000     260.7    260.7    2.28   258.7     965.7     266.5     199.9      98.9      98.7      56.5    0.000     0.000     0.000     0.000     0.000    2.28     0.00    0.00      0   -9.90   -9.00        3.7       11.7       11.7       11.7       11.7       11.7       11.7       11.7       11.7       11.7       11.7       11.7        0.0        0.0        0.0        0.0        0.0        0.0        0.0        0.0        0.0        0.0        0.0        0.0      0.0       0.3      19.8      26.0      32.2    424.57
    31    12  2025    -9     0     260.6     0.0      0.0    0.0    0.0    0.0      0.0      0.0   -9.90      0.4      0.1     24      0.0      0.0   100      0.4     0.1      24     17.0    2.28     -9     -9     -9      0     -9     0.0     0.0      0    -9.00      0.0      0.0      0.0   100    35.1    20.220    48.0    9.706   10.784     100       41.58    0.000    0.000     260.6    260.6    2.28   258.6     965.7     266.5     199.9      99.1      98.7      56.5    0.000     0.000     0.000     0.000     0.000    2.28     0.00    0.00      0   -9.90   -9.00        3.6       11.7       11.7       11.7       11.7       11.7       11.7       11.7       11.7       11.7       11.7       11.7        0.0        0.0        0.0        0.0        0.0        0.0        0.0        0.0        0.0        0.0        0.0        0.0      0.0       0.4      20.0      26.7      33.4    424.57
