AquaCrop 7.1 (August 2023) - Output created on (date) : 16-01-2026   at (time) : 12:17:13
Biomass and Yield at Multiple cuttings

   Run:   1
    Nr   Day  Month Year   DAP Interval  Biomass    Sum(B)   Dry-Yield  Sum(Y) Fresh-Yield  Sum(Y)
                                 days     ton/ha    ton/ha    ton/ha    ton/ha    ton/ha    ton/ha
     0     1     7  2011                             0.000               0.000               0.000
  9999     1     1  2012                            19.564               9.425              10.472

   Run:   2
    Nr   Day  Month Year   DAP Interval  Biomass    Sum(B)   Dry-Yield  Sum(Y) Fresh-Yield  Sum(Y)
                                 days     ton/ha    ton/ha    ton/ha    ton/ha    ton/ha    ton/ha
     0     1     7  2012                             0.000               0.000               0.000
  9999     1     1  2013                            19.961               9.616              10.685

   Run:   3
    Nr   Day  Month Year   DAP Interval  Biomass    Sum(B)   Dry-Yield  Sum(Y) Fresh-Yield  Sum(Y)
                                 days     ton/ha    ton/ha    ton/ha    ton/ha    ton/ha    ton/ha
     0     1     7  2013                             0.000               0.000               0.000
  9999     1     1  2014                            19.959               9.616              10.684

   Run:   4
    Nr   Day  Month Year   DAP Interval  Biomass    Sum(B)   Dry-Yield  Sum(Y) Fresh-Yield  Sum(Y)
                                 days     ton/ha    ton/ha    ton/ha    ton/ha    ton/ha    ton/ha
     0     1     7  2014                             0.000               0.000               0.000
  9999     1     1  2015                            19.944               9.602              10.669

   Run:   5
    Nr   Day  Month Year   DAP Interval  Biomass    Sum(B)   Dry-Yield  Sum(Y) Fresh-Yield  Sum(Y)
                                 days     ton/ha    ton/ha    ton/ha    ton/ha    ton/ha    ton/ha
     0     1     7  2015                             0.000               0.000               0.000
  9999     1     1  2016                            19.686               9.484              10.537
