AquaCrop 7.1 (August 2023) - Output created on (date) : 16-01-2026   at (time) : 12:17:13

   Run:   1
   Day Month  Year   DAP Stage   WC(2.30)   Rain     Irri   Surf   Infilt   RO    Drain       CR    Zgwt       Ex       E     E/Ex     Trx       Tr  Tr/Trx    ETx      ET  ET/ETx      GD       Z     StExp  StSto  StSen StSalt StWeed   CC      CCw     StTr  Kc(Tr)     Trx       Tr      TrW  Tr/Trx   WP    Biomass     HI    Y(dry)  Y(fresh)  Brelative    WPet      Bin     Bout  WC(2.30) Wr(2.30)     Z       Wr    Wr(SAT)    Wr(FC)   Wr(exp)   Wr(sto)   Wr(sen)   Wr(PWP)    SaltIn    SaltOut   SaltUp   Salt(2.30)  SaltZ     Z       ECe    ECsw   StSalt  Zgwt    ECgw       WC01       WC 2       WC 3       WC 4       WC 5       WC 6       WC 7       WC 8       WC 9       WC10       WC11       WC12      ECe01      ECe 2      ECe 3      ECe 4      ECe 5      ECe 6      ECe 7      ECe 8      ECe 9      ECe10      ECe11      ECe12     Rain       ETo      Tmin      Tavg      Tmax      CO2
                                      mm      mm       mm     mm     mm     mm       mm       mm      m        mm       mm     %        mm       mm    %        mm      mm       %  degC-day     m       %      %      %      %      %      %       %       %       -        mm       mm       mm    %     g/m2    ton/ha      %    ton/ha   ton/ha       %       kg/m3   ton/ha   ton/ha      mm       mm       m       mm        mm        mm        mm        mm        mm         mm    ton/ha    ton/ha    ton/ha    ton/ha    ton/ha     m      dS/m    dS/m      %     m      dS/m       0.05       0.18       0.33       0.48       0.63       0.80       1.00       1.20       1.43       1.68       1.93       2.18       0.05       0.18       0.33       0.48       0.63       0.80       1.00       1.20       1.43       1.68       1.93       2.18       mm        mm     degC      degC      degC       ppm
     1     7  2011     1     1     271.1    14.0      0.0    0.0   13.4    0.6      0.0      0.0   -9.90     16.0     10.8     67      0.0      0.0   100     16.0    10.8      67     17.6    0.30     -9     -9     -9      0     -9     0.0     0.0      0    -9.00      0.0      0.0      0.0   100     0.0     0.000    -9.9    0.000    0.000      -9        0.00    0.000    0.000     271.1    271.1    0.30    37.1     125.1      34.6      30.7      21.6      15.5       6.9    0.000     0.000     0.000     0.000     0.000    0.30     0.00    0.00      0   -9.90   -9.00       14.3       11.7       11.7       11.7       11.7       11.7       11.7       11.7       11.7       11.7       11.7       11.7        0.0        0.0        0.0        0.0        0.0        0.0        0.0        0.0        0.0        0.0        0.0        0.0     14.0      14.6      21.1      27.9      34.6    391.85
     2     7  2011     2     1     272.7    13.7      0.0    0.0   13.1    0.6      0.8      0.0   -9.90     16.3     10.7     66      0.0      0.0   100     16.3    10.7      66     16.3    0.30     -9     -9     -9      0     -9     0.0     0.0      0    -9.00      0.0      0.0      0.0   100     0.0     0.000    -9.9    0.000    0.000      -9        0.00    0.000    0.000     272.7    272.7    0.30    37.7     125.1      34.6      30.7      21.8      15.5       6.9    0.000     0.000     0.000     0.000     0.000    0.30     0.00    0.00      0   -9.90   -9.00       14.5       11.9       11.9       11.8       11.8       11.8       11.7       11.7       11.7       11.7       11.7       11.7        0.0        0.0        0.0        0.0        0.0        0.0        0.0        0.0        0.0        0.0        0.0        0.0     13.7      14.8      18.6      26.1      33.6    391.85
     3     7  2011     3     1     265.2     3.0      0.0    0.0    3.0    0.0      1.7      0.0   -9.90     15.5      8.7     56      0.0      0.0   100     15.5     8.7      56     17.3    0.30     -9     -9     -9      0     -9     0.0     0.0      0    -9.00      0.0      0.0      0.0   100     0.0     0.000    -9.9    0.000    0.000      -9        0.00    0.000    0.000     265.2    265.2    0.30    29.7     125.1      34.6      30.7      21.3      15.5       6.9    0.000     0.000     0.000     0.000     0.000    0.30     0.00    0.00      0   -9.90   -9.00        6.2       11.9       12.0       11.9       11.8       11.8       11.8       11.8       11.7       11.7       11.7       11.7        0.0        0.0        0.0        0.0        0.0        0.0        0.0        0.0        0.0        0.0        0.0        0.0      3.0      14.1      20.6      27.1      33.6    391.85
     4     7  2011     4     1     260.0     2.6      0.0    0.0    2.6    0.0      1.3      0.0   -9.90     16.8      6.6     40      0.0      0.0   100     16.8     6.6      40     16.9    0.30     -9     -9     -9      0     -9     0.0     0.0      0    -9.00      0.0      0.0      0.0   100     0.0     0.000    -9.9    0.000    0.000      -9        0.00    0.000    0.000     260.0    260.0    0.30    25.3     125.1      34.6      30.7      22.0      15.5       6.9    0.000     0.000     0.000     0.000     0.000    0.30     0.00    0.00      0   -9.90   -9.00        2.2       11.7       11.8       11.7       11.7       11.7       11.7       11.7       11.7       11.7       11.7       11.7        0.0        0.0        0.0        0.0        0.0        0.0        0.0        0.0        0.0        0.0        0.0        0.0      2.6      15.2      19.8      27.4      34.9    391.85
     5     7  2011     5     1     257.8     1.1      0.0    0.0    1.1    0.0      0.5      0.0   -9.90     16.2      2.6     16      0.0      0.0   100     16.2     2.6      16     16.3    0.32     -9     -9     -9      0     -9     0.0     0.0      0    -9.00      0.0      0.0      0.0   100     0.0     0.000    -9.9    0.000    0.000      -9        0.00    0.000    0.000     257.8    257.8    0.32    26.0     133.5      36.9      32.8      23.2      16.5       7.4    0.000     0.000     0.000     0.000     0.000    0.32     0.00    0.00      0   -9.90   -9.00        1.2       11.3       11.7       11.7       11.7       11.7       11.7       11.7       11.7       11.7       11.7       11.7        0.0        0.0        0.0        0.0        0.0        0.0        0.0        0.0        0.0        0.0        0.0        0.0      1.1      14.7      18.6      26.1      33.5    391.85
     6     7  2011     6     1     259.5    10.3      0.0    0.0   10.3    0.0      0.2      0.0   -9.90     15.9      8.5     53      0.0      0.0   100     15.9     8.5      53     17.0    0.36     -9     -9     -9      0     -9     0.0     0.0      0    -9.00      0.0      0.0      0.0   100     0.0     0.000    -9.9    0.000    0.000      -9        0.00    0.000    0.000     259.5    259.5    0.36    32.5     150.6      41.6      37.0      26.0      18.7       8.4    0.000     0.000     0.000     0.000     0.000    0.36     0.00    0.00      0   -9.90   -9.00        3.0       11.3       11.7       11.7       11.7       11.7       11.7       11.7       11.7       11.7       11.7       11.7        0.0        0.0        0.0        0.0        0.0        0.0        0.0        0.0        0.0        0.0        0.0        0.0     10.3      14.5      20.0      26.9      33.9    391.85
     7     7  2011     7     2     260.0     8.8      0.6    0.0    8.8    0.0      0.0      0.0   -9.90     15.8      8.7     55      0.1      0.1   100     15.9     8.9      56     17.1    0.40     -9      0      0      0      0     0.4     0.4      0     0.01      0.1      0.1      0.1   100    34.3     0.003    -9.9    0.000    0.000     100        0.00    0.000    0.000     260.0    260.0    0.40    37.4     166.4      46.0      46.0      28.7      28.7       9.3    0.000     0.000     0.000     0.000     0.000    0.40     0.00    0.00      0   -9.90   -9.00        9.5        9.5        9.6       11.7       11.7       11.7       11.7       11.7       11.7       11.7       11.7       11.7        0.0        0.0        0.0        0.0        0.0        0.0        0.0        0.0        0.0        0.0        0.0        0.0      8.8      14.5      20.2      27.1      34.0    391.85
     8     7  2011     8     2     258.8     1.3      4.0    0.0    1.3    0.0      0.0      0.0   -9.90     14.8      6.3     43      0.1      0.1   100     14.9     6.5      43     17.6    0.43     -9      0      0      0      0     0.5     0.5      0     0.01      0.1      0.1      0.1   100    34.3     0.006    -9.9    0.000    0.000     100        0.00    0.000    0.000     258.8    258.8    0.43    40.8     181.2      50.1      50.1      30.5      30.5      10.2    0.000     0.000     0.000     0.000     0.000    0.43     0.00    0.00      0   -9.90   -9.00        9.4        9.4        9.4       11.2       11.7       11.7       11.7       11.7       11.7       11.7       11.7       11.7        0.0        0.0        0.0        0.0        0.0        0.0        0.0        0.0        0.0        0.0        0.0        0.0      1.3      13.5      21.2      27.2      33.2    391.85
     9     7  2011     9     2     257.8     4.5      3.5    0.0    4.5    0.0      0.0      0.0   -9.90     15.2      8.9     58      0.2      0.2   100     15.3     9.0      59     17.9    0.47      0      0      0      0      0     0.6     0.6      0     0.01      0.2      0.2      0.2   100    34.3     0.010    -9.9    0.000    0.000     100        0.00    0.000    0.000     257.8    257.8    0.47    44.3     195.4      54.0      54.0      33.3      33.3      11.0    0.000     0.000     0.000     0.000     0.000    0.47     0.00    0.00      0   -9.90   -9.00        9.4        9.4        9.5       10.4       11.7       11.7       11.7       11.7       11.7       11.7       11.7       11.7        0.0        0.0        0.0        0.0        0.0        0.0        0.0        0.0        0.0        0.0        0.0        0.0      4.5      14.0      21.8      27.9      34.1    391.85
    10     7  2011    10     2     257.4     3.1      5.0    0.0    3.1    0.0      0.0      0.0   -9.90     16.3      8.3     51      0.2      0.2   100     16.5     8.5      52     17.0    0.50      0      0      0      0      0     0.7     0.7      0     0.01      0.2      0.2      0.2   100    34.3     0.014    -9.9    0.000    0.000     100        0.00    0.000    0.000     257.4    257.4    0.50    47.6     209.1      57.8      57.8      36.8      36.8      11.9    0.000     0.000     0.000     0.000     0.000    0.50     0.00    0.00      0   -9.90   -9.00        9.5        9.5        9.6        9.9       11.7       11.7       11.7       11.7       11.7       11.7       11.7       11.7        0.0        0.0        0.0        0.0        0.0        0.0        0.0        0.0        0.0        0.0        0.0        0.0      3.1      15.0      20.0      27.3      34.7    391.85
    11     7  2011    11     2     257.1     0.8      5.4    0.0    0.8    0.0      0.0      0.0   -9.90     16.5      6.2     38      0.2      0.2   100     16.7     6.5      39     16.4    0.53      8      0      0      0      0     0.8     0.8      0     0.01      0.2      0.2      0.2   100    34.3     0.019    -9.9    0.000    0.000     100        0.00    0.000    0.000     257.1    257.1    0.53    50.4     222.3      61.4      61.4      39.3      39.3      12.6    0.000     0.000     0.000     0.000     0.000    0.53     0.00    0.00      0   -9.90   -9.00        9.6        9.6        9.6        9.6       11.7       11.7       11.7       11.7       11.7       11.7       11.7       11.7        0.0        0.0        0.0        0.0        0.0        0.0        0.0        0.0        0.0        0.0        0.0        0.0      0.8      15.2      18.9      26.6      34.4    391.85
    12     7  2011    12     2     257.0     6.9      2.7    0.0    6.9    0.0      0.0      0.0   -9.90     16.7      9.5     57      0.3      0.3   100     16.9     9.7      58     16.1    0.56      0      0      0      0      0     1.0     1.0      0     0.02      0.3      0.3      0.3   100    34.3     0.025    -9.9    0.000    0.000      99        0.00    0.000    0.000     257.0    257.0    0.56    53.6     235.2      65.0      65.0      41.8      41.8      13.4    0.000     0.000     0.000     0.000     0.000    0.56     0.00    0.00      0   -9.90   -9.00        9.6        9.6        9.6        9.6       11.6       11.7       11.7       11.7       11.7       11.7       11.7       11.7        0.0        0.0        0.0        0.0        0.0        0.0        0.0        0.0        0.0        0.0        0.0        0.0      6.9      15.4      18.2      26.2      34.3    391.85
    13     7  2011    13     2     255.3     6.1      1.6    0.0    6.1    0.0      0.0      0.0   -9.90     15.0      9.1     61      0.3      0.3   100     15.2     9.4      61     16.7    0.59      0      0      0      0      0     1.2     1.2      0     0.02      0.3      0.3      0.3   100    34.3     0.032    -9.9    0.000    0.000      99        0.00    0.000    0.000     255.3    255.3    0.59    55.9     247.7      68.4      68.4      42.1      42.1      14.1    0.000     0.000     0.000     0.000     0.000    0.59     0.00    0.00      0   -9.90   -9.00        9.4        9.4        9.5        9.5       11.0       11.7       11.7       11.7       11.7       11.7       11.7       11.7        0.0        0.0        0.0        0.0        0.0        0.0        0.0        0.0        0.0        0.0        0.0        0.0      6.1      13.9      19.4      26.0      32.6    391.85
    14     7  2011    14     2     254.2     1.9      4.4    0.0    1.9    0.0      0.0      0.0   -9.90     14.8      7.0     47      0.3      0.3   100     15.1     7.3      49     17.8    0.62      1      0      0      0      0     1.4     1.4      0     0.02      0.3      0.3      0.3   100    34.3     0.040    -9.9    0.000    0.000      99        0.00    0.000    0.000     254.2    254.2    0.62    58.5     259.9      71.8      71.8      44.1      44.1      14.8    0.000     0.000     0.000     0.000     0.000    0.62     0.00    0.00      0   -9.90   -9.00        9.4        9.4        9.5        9.5       10.3       11.7       11.7       11.7       11.7       11.7       11.7       11.7        0.0        0.0        0.0        0.0        0.0        0.0        0.0        0.0        0.0        0.0        0.0        0.0      1.9      13.8      21.6      27.7      33.7    391.85
    15     7  2011    15     2     252.8     7.6      0.2    0.0    7.6    0.0      0.0      0.0   -9.90     13.8      8.8     64      0.4      0.4   100     14.2     9.2      65     17.1    0.65      0      0      0      0      0     1.6     1.6      0     0.03      0.4      0.4      0.4   100    34.3     0.050    -9.9    0.000    0.000      99        0.00    0.000    0.000     252.8    252.8    0.65    60.3     271.9      75.1      75.1      45.0      45.0      15.6    0.000     0.000     0.000     0.000     0.000    0.65     0.00    0.00      0   -9.90   -9.00        9.3        9.3        9.4        9.4        9.7       11.7       11.7       11.7       11.7       11.7       11.7       11.7        0.0        0.0        0.0        0.0        0.0        0.0        0.0        0.0        0.0        0.0        0.0        0.0      7.6      12.9      20.1      25.9      31.7    391.85
    16     7  2011    16     2     253.2     3.7      5.7    0.0    3.7    0.0      0.0      0.0   -9.90     15.1      8.4     56      0.5      0.5   100     15.6     8.9      57     17.2    0.67      0      0      0      0      0     1.9     1.9      0     0.03      0.5      0.5      0.5   100    34.3     0.062    -9.9    0.000    0.000      99        0.00    0.000    0.000     253.2    253.2    0.67    63.5     283.6      78.3      78.3      48.7      48.7      16.2    0.000     0.000     0.000     0.000     0.000    0.67     0.00    0.00      0   -9.90   -9.00        9.5        9.5        9.5        9.5        9.5       11.7       11.7       11.7       11.7       11.7       11.7       11.7        0.0        0.0        0.0        0.0        0.0        0.0        0.0        0.0        0.0        0.0        0.0        0.0      3.7      14.2      20.3      26.9      33.6    391.85
    17     7  2011    17     2     266.0    26.0      0.0    0.0   24.5    1.5      0.0      0.0   -9.90     15.2     11.1     73      0.6      0.6   100     15.8    11.7      74     16.7    0.70      0      0      0      0      0     2.2     2.2      0     0.04      0.6      0.6      0.6   100    34.3     0.075    -9.9    0.000    0.000      99        0.00    0.000    0.000     266.0    266.0    0.70    78.9     295.2      81.5      81.5      51.0      51.0      16.9    0.000     0.000     0.000     0.000     0.000    0.70     0.00    0.00      0   -9.90   -9.00       22.5        9.5        9.5        9.5        9.5       11.7       11.7       11.7       11.7       11.7       11.7       11.7        0.0        0.0        0.0        0.0        0.0        0.0        0.0        0.0        0.0        0.0        0.0        0.0     26.0      14.4      19.4      26.4      33.4    391.85
    18     7  2011    18     2     260.8     4.9      0.0    0.0    4.9    0.0      0.0      0.0   -9.90     15.0      9.4     63      0.7      0.7   100     15.6    10.1      65     17.0    0.73      0      0      0      0      0     2.6     2.6      0     0.05      0.7      0.7      0.7   100    34.3     0.091    -9.9    0.000    0.000      99        0.00    0.000    0.000     260.8    260.8    0.73    76.8     306.5      84.6      84.6      52.7      52.7      17.6    0.000     0.000     0.000     0.000     0.000    0.73     0.00    0.00      0   -9.90   -9.00        7.1       12.2       12.0       10.8        9.5       11.7       11.7       11.7       11.7       11.7       11.7       11.7        0.0        0.0        0.0        0.0        0.0        0.0        0.0        0.0        0.0        0.0        0.0        0.0      4.9      14.2      19.9      26.7      33.4    391.85
    19     7  2011    19     2     255.5     2.1      0.0    0.0    2.1    0.0      0.0      0.0   -9.90     15.3      6.7     44      0.8      0.8   100     16.1     7.5      46     16.9    0.75      3      0      0      0      0     3.1     3.1      0     0.05      0.8      0.8      0.8   100    34.3     0.110    -9.9    0.000    0.000      99        0.00    0.000    0.000     255.5    255.5    0.75    74.6     317.7      87.7      87.7      55.3      55.3      18.3    0.000     0.000     0.000     0.000     0.000    0.75     0.00    0.00      0   -9.90   -9.00        1.6       11.8       11.8       11.5        9.5       11.7       11.7       11.7       11.7       11.7       11.7       11.7        0.0        0.0        0.0        0.0        0.0        0.0        0.0        0.0        0.0        0.0        0.0        0.0      2.1      14.7      19.7      26.8      34.0    391.85
    20     7  2011    20     2     256.3    10.4      0.0    0.0   10.4    0.0      0.0      0.0   -9.90     15.0      8.7     58      0.9      0.9   100     15.9     9.6      60     17.6    0.78      0      0      0      0      0     3.6     3.6      0     0.06      0.9      0.9      0.9   100    34.3     0.132    -9.9    0.000    0.000      99        0.00    0.000    0.000     256.3    256.3    0.78    78.5     328.7      90.8      90.8      57.0      57.0      18.9    0.000     0.000     0.000     0.000     0.000    0.78     0.00    0.00      0   -9.90   -9.00        2.5       11.7       11.7       11.7        9.5       11.7       11.7       11.7       11.7       11.7       11.7       11.7        0.0        0.0        0.0        0.0        0.0        0.0        0.0        0.0        0.0        0.0        0.0        0.0     10.4      14.5      21.3      27.9      34.6    391.85
    21     7  2011    21     2     254.1     4.2      0.0    0.0    4.2    0.0      0.0      0.0   -9.90     14.1      5.3     38      1.0      1.0   100     15.1     6.3      42     17.0    0.81      5      0      0      0      0     4.3     4.3      0     0.07      1.0      1.0      1.0   100    34.3     0.158    -9.9    0.000    0.000      98        0.00    0.000    0.000     254.1    254.1    0.81    79.3     339.6      93.8      93.8      57.6      57.6      19.5    0.000     0.000     0.000     0.000     0.000    0.81     0.00    0.00      0   -9.90   -9.00        0.3       11.7       11.7       11.7        9.5       11.7       11.7       11.7       11.7       11.7       11.7       11.7        0.0        0.0        0.0        0.0        0.0        0.0        0.0        0.0        0.0        0.0        0.0        0.0      4.2      13.8      20.0      26.4      32.8    391.85
    22     7  2011    22     2     252.5     4.5      0.0    0.0    4.5    0.0      0.0      0.0   -9.90     14.5      4.9     34      1.3      1.3   100     15.8     6.1      39     16.7    0.83      6      0      0      0      0     5.0     5.0      0     0.09      1.3      1.3      1.3   100    34.3     0.188    -9.9    0.000    0.000      98        0.00    0.000    0.000     252.5    252.5    0.83    80.6     350.3      96.7      96.7      60.6      60.6      20.2    0.000     0.000     0.000     0.000     0.000    0.83     0.00    0.00      0   -9.90   -9.00       -0.1       10.9       11.7       11.7        9.5       11.7       11.7       11.7       11.7       11.7       11.7       11.7        0.0        0.0        0.0        0.0        0.0        0.0        0.0        0.0        0.0        0.0        0.0        0.0      4.5      14.4      19.4      26.4      33.4    391.85
    23     7  2011    23     2     250.3     0.5      0.0    0.0    0.5    0.0      0.0      0.0   -9.90     13.3      1.3     10      1.3      1.3   100     14.6     2.7      18     17.6    0.86     11      0      0      0      0     5.8     5.8      0     0.10      1.3      1.3      1.3   100    34.3     0.222    -9.9    0.000    0.000      97        0.00    0.000    0.000     250.3    250.3    0.86    81.4     360.9      99.7      99.7      60.5      60.5      20.8    0.000     0.000     0.000     0.000     0.000    0.86     0.00    0.00      0   -9.90   -9.00       -1.0       10.0       11.7       11.7        9.5       11.7       11.7       11.7       11.7       11.7       11.7       11.7        0.0        0.0        0.0        0.0        0.0        0.0        0.0        0.0        0.0        0.0        0.0        0.0      0.5      13.4      21.1      27.0      32.9    391.85
    24     7  2011    24     2     250.1     6.2      0.0    0.0    6.2    0.0      0.0      0.0   -9.90     13.9      4.7     34      1.7      1.7   100     15.6     6.3      41     17.4    0.88      8      0      0      0      0     6.7     6.7      0     0.12      1.7      1.7      1.7   100    34.3     0.262    -9.9    0.000    0.000      97        0.00    0.000    0.000     250.1    250.1    0.88    84.1     371.4     102.5     102.5      64.0      64.0      21.4    0.000     0.000     0.000     0.000     0.000    0.88     0.00    0.00      0   -9.90   -9.00       -0.5        9.5       11.7       11.7        9.5       11.7       11.7       11.7       11.7       11.7       11.7       11.7        0.0        0.0        0.0        0.0        0.0        0.0        0.0        0.0        0.0        0.0        0.0        0.0      6.2      14.3      20.8      27.3      33.9    391.85
    25     7  2011    25     2     248.8     4.5      0.7    0.0    4.5    0.0      0.0      0.0   -9.90     13.7      4.6     33      1.9      1.9   100     15.7     6.5      42     17.0    0.91      9      0      0      0      0     7.8     7.8      0     0.13      1.9      1.9      1.9   100    34.3     0.308    -9.9    0.000    0.000      96        0.00    0.000    0.000     248.8    248.8    0.91    85.8     381.7     105.4     105.4      65.9      65.9      22.0    0.000     0.000     0.000     0.000     0.000    0.91     0.00    0.00      0   -9.90   -9.00        9.5        9.5        9.5        9.5        9.5        9.5       11.6       11.7       11.7       11.7       11.7       11.7        0.0        0.0        0.0        0.0        0.0        0.0        0.0        0.0        0.0        0.0        0.0        0.0      4.5      14.3      20.0      26.8      33.6    391.85
    26     7  2011    26     2     250.3     0.3      9.5    0.0    0.3    0.0      0.0      0.0   -9.90     15.4      5.9     38      2.5      2.5   100     17.9     8.4      47     16.5    0.93     15      0      0      0      0     9.0     9.0      0     0.15      2.5      2.5      2.5   100    34.3     0.360    -9.9    0.000    0.000      95        0.00    0.000    0.000     250.3    250.3    0.93    90.5     392.0     108.2     108.2      71.8      71.8      22.6    0.000     0.000     0.000     0.000     0.000    0.93     0.00    0.00      0   -9.90   -9.00        9.7        9.7        9.7        9.7        9.7        9.7       11.4       11.7       11.7       11.7       11.7       11.7        0.0        0.0        0.0        0.0        0.0        0.0        0.0        0.0        0.0        0.0        0.0        0.0      0.3      16.4      18.9      27.5      36.2    391.85
    27     7  2011    27     2     248.2     2.9      5.4    0.0    2.9    0.0      0.0      0.0   -9.90     13.9      7.7     55      2.7      2.7   100     16.6    10.4      63     16.9    0.95      0      0      0      0      0    10.6    10.6      0     0.18      2.7      2.7      2.7   100    34.3     0.421    -9.9    0.000    0.000      94        0.00    0.000    0.000     248.2    248.2    0.95    91.8     402.2     111.0     111.0      71.3      71.3      23.2    0.000     0.000     0.000     0.000     0.000    0.95     0.00    0.00      0   -9.90   -9.00        9.6        9.6        9.6        9.6        9.6        9.6       10.9       11.7       11.7       11.7       11.7       11.7        0.0        0.0        0.0        0.0        0.0        0.0        0.0        0.0        0.0        0.0        0.0        0.0      2.9      15.2      19.7      27.3      34.8    391.85
    28     7  2011    28     2     246.1     4.4      4.4    0.0    4.4    0.0      0.0      0.0   -9.90     12.4      8.0     65      2.9      2.9   100     15.4    11.0      71     17.2    0.98      0      0      0      0      0    12.5    12.5      0     0.21      2.9      2.9      2.9   100    34.3     0.493    -9.9    0.000    0.000      94        0.00    0.000    0.000     246.1    246.1    0.98    92.9     412.2     113.8     113.8      70.7      70.7      23.8    0.000     0.000     0.000     0.000     0.000    0.98     0.00    0.00      0   -9.90   -9.00        9.4        9.4        9.5        9.5        9.5        9.5       10.4       11.7       11.7       11.7       11.7       11.7        0.0        0.0        0.0        0.0        0.0        0.0        0.0        0.0        0.0        0.0        0.0        0.0      4.4      14.1      20.4      26.9      33.5    391.85
    29     7  2011    29     2     245.9     1.6      8.3    0.0    1.6    0.0      0.0      0.0   -9.90     12.5      6.3     51      3.6      3.6   100     16.1     9.9      62     16.9    1.00      3      0      0      0      0    14.7    14.7      0     0.24      3.6      3.6      3.6   100    34.3     0.576    -9.9    0.000    0.000      93        0.00    0.000    0.000     245.9    245.9    1.00    95.6     422.2     116.6     116.6      73.9      73.9      24.4    0.000     0.000     0.000     0.000     0.000    1.00     0.00    0.00      0   -9.90   -9.00        9.5        9.5        9.6        9.6        9.6        9.6       10.0       11.7       11.7       11.7       11.7       11.7        0.0        0.0        0.0        0.0        0.0        0.0        0.0        0.0        0.0        0.0        0.0        0.0      1.6      14.8      19.7      26.9      34.1    391.85
    30     7  2011    30     2     244.3     1.5      6.4    0.0    1.5    0.0      0.0      0.0   -9.90     11.1      5.7     52      3.8      3.8   100     14.9     9.6      64     17.8    1.02      3      0      0      0      0    17.2    17.2      0     0.28      3.8      3.8      3.8   100    34.3     0.672    -9.9    0.000    0.000      93        0.00    0.000    0.000     244.3    244.3    1.02    96.5     432.0     119.3     119.3      73.3      73.3      25.0    0.000     0.000     0.000     0.000     0.000    1.02     0.00    0.00      0   -9.90   -9.00        9.4        9.4        9.5        9.5        9.5        9.5        9.6       11.7       11.7       11.7       11.7       11.7        0.0        0.0        0.0        0.0        0.0        0.0        0.0        0.0        0.0        0.0        0.0        0.0      1.5      13.7      21.5      27.5      33.6    391.85
    31     7  2011    31     2     243.9     6.0      5.9    0.0    6.0    0.0      0.0      0.0   -9.90     10.4      7.8     75      4.4      4.4   100     14.8    12.2      82     16.0    1.05      0      0      0      0      0    20.3    20.3      0     0.32      4.4      4.4      4.4   100    34.3     0.783    -9.9    0.000    0.000      92        0.00    0.000    0.000     243.9    243.9    1.05    98.5     441.8     122.0     122.0      74.9      74.9      25.6    0.000     0.000     0.000     0.000     0.000    1.05     0.00    0.00      0   -9.90   -9.00        9.4        9.4        9.5        9.5        9.5        9.5        9.5       11.7       11.7       11.7       11.7       11.7        0.0        0.0        0.0        0.0        0.0        0.0        0.0        0.0        0.0        0.0        0.0        0.0      6.0      13.7      17.9      24.8      31.6    391.85
     1     8  2011    32     2     246.0    16.2      0.0    0.0   15.9    0.3      0.0      0.0   -9.90     10.2      8.4     82      5.4      5.4   100     15.6    13.8      88     17.7    1.07      0      0      0      0      0    24.0    24.0      0     0.37      5.4      5.4      5.4   100    34.3     0.911    -9.9    0.000    0.000      92        0.00    0.000    0.000     246.0    246.0    1.07   102.8     451.5     124.7     124.7      78.2      78.2      26.1    0.000     0.000     0.000     0.000     0.000    1.07     0.00    0.00      0   -9.90   -9.00       14.2        7.6        9.5        9.5        9.5        9.5        9.5       11.7       11.7       11.7       11.7       11.7        0.0        0.0        0.0        0.0        0.0        0.0        0.0        0.0        0.0        0.0        0.0        0.0     16.2      14.4      21.5      28.0      34.5    391.85
     2     8  2011    33     2     245.3    13.6      0.0    0.0   13.2    0.5      0.0      0.0   -9.90      9.3      7.8     84      6.2      6.2   100     15.4    13.9      90     17.0    1.09      0      0      0      0      0    28.3    28.3      0     0.43      6.2      6.2      6.2   100    34.3     1.059    -9.9    0.000    0.000      92        0.00    0.000    0.000     245.3    245.3    1.09   104.2     461.2     127.3     127.3      79.6      79.6      26.7    0.000     0.000     0.000     0.000     0.000    1.09     0.00    0.00      0   -9.90   -9.00       14.7        6.8        9.5        9.5        9.5        9.5        9.5       11.7       11.7       11.7       11.7       11.7        0.0        0.0        0.0        0.0        0.0        0.0        0.0        0.0        0.0        0.0        0.0        0.0     13.6      14.3      20.0      26.8      33.6    391.85
     3     8  2011    34     2     244.2     4.6      8.2    0.0    4.6    0.0      0.0      0.0   -9.90      8.3      6.8     83      7.0      7.0   100     15.3    13.9      91     16.7    1.12      0      0      0      0      0    33.3    33.3      0     0.49      7.0      7.0      7.0   100    34.3     1.229    -9.9    0.000    0.000      92        0.00    0.000    0.000     244.2    244.2    1.12   105.9     470.7     130.0     130.0      81.1      81.1      27.3    0.000     0.000     0.000     0.000     0.000    1.12     0.00    0.00      0   -9.90   -9.00        9.5        9.5        9.5        9.5        9.5        9.5        9.5       11.5       11.7       11.7       11.7       11.7        0.0        0.0        0.0        0.0        0.0        0.0        0.0        0.0        0.0        0.0        0.0        0.0      4.6      14.3      19.5      26.3      33.2    391.85
     4     8  2011    35     2     242.6    10.8      1.6    0.0   10.8    0.0      0.0      0.0   -9.90      6.9      6.3     92      7.6      7.6   100     14.5    14.0      96     16.9    1.14      0      0      0      0      0    39.3    39.3      0     0.56      7.6      7.6      7.6   100    34.3     1.422    -9.9    0.000    0.000      92        0.00    0.000    0.000     242.6    242.6    1.14   107.5     480.2     132.6     132.6      81.1      81.1      27.8    0.000     0.000     0.000     0.000     0.000    1.14     0.00    0.00      0   -9.90   -9.00        9.4        9.4        9.4        9.4        9.4        9.4        9.4       11.1       11.7       11.7       11.7       11.7        0.0        0.0        0.0        0.0        0.0        0.0        0.0        0.0        0.0        0.0        0.0        0.0     10.8      13.6      19.8      26.1      32.4    391.85
     5     8  2011    36     2     242.6    11.6      3.5    0.0   11.5    0.0      0.0      0.0   -9.90      6.2      5.7     93      9.2      9.2   100     15.4    15.0      97     16.6    1.16      0      0      0      0      0    46.4    46.4      0     0.64      9.2      9.2      9.2   100    34.3     1.641    -9.9    0.000    0.000      92        0.00    0.000    0.000     242.6    242.6    1.16   110.7     489.6     135.2     135.2      84.9      84.9      28.4    0.000     0.000     0.000     0.000     0.000    1.16     0.00    0.00      0   -9.90   -9.00        9.5        9.5        9.5        9.5        9.5        9.5        9.5       10.7       11.7       11.7       11.7       11.7        0.0        0.0        0.0        0.0        0.0        0.0        0.0        0.0        0.0        0.0        0.0        0.0     11.6      14.4      19.1      26.2      33.3    391.85
     6     8  2011    37     2     242.6     2.0     13.2    0.0    2.0    0.0      0.0      0.0   -9.90      5.3      4.4     82     10.8     10.8   100     16.1    15.2      94     16.3    1.18      1      0      0      0      0    53.7    53.7      0     0.71     10.8     10.8     10.8   100    34.3     1.885    -9.9    0.000    0.000      92        0.00    0.000    0.000     242.6    242.6    1.18   113.6     499.0     137.8     137.8      88.3      88.3      28.9    0.000     0.000     0.000     0.000     0.000    1.18     0.00    0.00      0   -9.90   -9.00        9.6        9.6        9.6        9.6        9.6        9.6        9.6       10.2       11.7       11.7       11.7       11.7        0.0        0.0        0.0        0.0        0.0        0.0        0.0        0.0        0.0        0.0        0.0        0.0      2.0      15.2      18.6      26.4      34.1    391.85
     7     8  2011    38     2     241.5     2.5     11.7    0.0    2.5    0.0      0.0      0.0   -9.90      4.3      3.9     90     11.4     11.4   100     15.7    15.3      97     16.7    1.20      0      0      0      0      0    60.0    60.0      0     0.77     11.4     11.4     11.4   100    34.3     2.148    -9.9    0.000    0.000      92        0.00    0.000    0.000     241.5    241.5    1.20   115.0     508.3     140.3     140.3      89.1      89.1      29.5    0.000     0.000     0.000     0.000     0.000    1.20     0.00    0.00      0   -9.90   -9.00        9.5        9.5        9.6        9.6        9.6        9.6        9.6        9.9       11.7       11.7       11.7       11.7        0.0        0.0        0.0        0.0        0.0        0.0        0.0        0.0        0.0        0.0        0.0        0.0      2.5      14.8      19.4      26.7      34.0    391.85
     8     8  2011    39     2     240.4     4.9      9.0    0.0    4.9    0.0      0.0      0.0   -9.90      3.4      3.4    100     11.6     11.6   100     15.1    15.1     100     17.6    1.23      0      0      0      0      0    65.4    65.4      0     0.81     11.6     11.6     11.6   100    34.3     2.428    -9.9    0.000    0.000      93        0.00    0.000    0.000     240.4    240.4    1.23   116.2     517.5     142.9     142.9      89.3      89.3      30.0    0.000     0.000     0.000     0.000     0.000    1.23     0.00    0.00      0   -9.90   -9.00        9.5        9.5        9.5        9.5        9.5        9.5        9.5        9.7       11.7       11.7       11.7       11.7        0.0        0.0        0.0        0.0        0.0        0.0        0.0        0.0        0.0        0.0        0.0        0.0      4.9      14.3      21.2      27.7      34.2    391.85
     9     8  2011    40     2     239.2     4.2      8.8    0.0    4.2    0.0      0.0      0.0   -9.90      2.7      2.7    100     11.5     11.5   100     14.2    14.2     100     17.5    1.25      0      0      0      0      0    69.9    69.9      0     0.85     11.5     11.5     11.5   100    34.3     2.720    -9.9    0.000    0.000      93        0.00    0.000    0.000     239.2    239.2    1.25   117.2     526.7     145.4     145.4      88.8      88.8      30.6    0.000     0.000     0.000     0.000     0.000    1.25     0.00    0.00      0   -9.90   -9.00        9.4        9.4        9.4        9.4        9.4        9.4        9.4        9.5       11.7       11.7       11.7       11.7        0.0        0.0        0.0        0.0        0.0        0.0        0.0        0.0        0.0        0.0        0.0        0.0      4.2      13.5      21.0      27.0      33.0    391.85
    10     8  2011    41     2     238.6    11.4      1.9    0.0   11.3    0.0      0.0      0.0   -9.90      2.2      2.2    100     11.6     11.6   100     13.8    13.8     100     17.1    1.27      0      0      0      0      0    73.7    73.7      0     0.88     11.6     11.6     11.6   100    34.3     3.022    -9.9    0.000    0.000      94        0.00    0.000    0.000     238.6    238.6    1.27   118.7     535.8     147.9     147.9      89.3      89.3      31.1    0.000     0.000     0.000     0.000     0.000    1.27     0.00    0.00      0   -9.90   -9.00        9.3        9.3        9.4        9.4        9.4        9.4        9.4        9.4       11.7       11.7       11.7       11.7        0.0        0.0        0.0        0.0        0.0        0.0        0.0        0.0        0.0        0.0        0.0        0.0     11.4      13.1      20.1      26.0      32.0    391.85
    11     8  2011    42     2     240.0     6.2     10.1    0.0    6.2    0.0      0.0      0.0   -9.90      2.1      2.1    100     12.9     12.9   100     14.9    14.9     100     17.8    1.29      0      0      0      0      0    77.0    77.0      0     0.91     12.9     12.9     12.9   100    34.3     3.333    -9.9    0.000    0.000      94        0.00    0.000    0.000     240.0    240.0    1.29   122.1     544.9     150.4     150.4      93.7      93.7      31.6    0.000     0.000     0.000     0.000     0.000    1.29     0.00    0.00      0   -9.90   -9.00        9.5        9.5        9.5        9.5        9.5        9.5        9.5        9.5       11.7       11.7       11.7       11.7        0.0        0.0        0.0        0.0        0.0        0.0        0.0        0.0        0.0        0.0        0.0        0.0      6.2      14.2      21.6      27.9      34.2    391.85
    12     8  2011    43     2     241.4     1.4     16.0    0.0    1.4    0.0      0.0      0.0   -9.90      1.9      1.9     99     14.2     14.2   100     16.1    16.1     100     17.5    1.31      4      0      0      0      0    79.7    79.7      0     0.93     14.2     14.2     14.2   100    34.3     3.651    -9.9    0.000    0.000      94        0.00    0.000    0.000     241.4    241.4    1.31   125.9     553.9     152.9     152.9      98.5      98.5      32.2    0.000     0.000     0.000     0.000     0.000    1.31     0.00    0.00      0   -9.90   -9.00        9.6        9.6        9.6        9.6        9.6        9.6        9.6        9.6       11.6       11.7       11.7       11.7        0.0        0.0        0.0        0.0        0.0        0.0        0.0        0.0        0.0        0.0        0.0        0.0      1.4      15.3      21.0      28.3      35.6    391.85
    13     8  2011    44     2     240.2    10.2      4.3    0.0   10.1    0.0      0.0      0.0   -9.90      1.6      1.6    100     14.1     14.1   100     15.7    15.7     100     16.7    1.33      0      0      0      0      0    82.0    82.0      0     0.94     14.1     14.1     14.1   100    34.3     3.974    -9.9    0.000    0.000      95        0.00    0.000    0.000     240.2    240.2    1.33   127.7     562.8     155.4     155.4      99.0      99.0      32.7    0.000     0.000     0.000     0.000     0.000    1.33     0.00    0.00      0   -9.90   -9.00        9.5        9.5        9.6        9.6        9.6        9.6        9.6        9.6       11.3       11.7       11.7       11.7        0.0        0.0        0.0        0.0        0.0        0.0        0.0        0.0        0.0        0.0        0.0        0.0     10.2      14.9      19.4      26.8      34.2    391.85
    14     8  2011    45     2     238.1     1.7     11.1    0.0    1.7    0.0      0.0      0.0   -9.90      1.3      1.3    100     13.6     13.6   100     14.9    14.9     100     17.4    1.35      2      0      0      0      0    84.0    84.0      0     0.96     13.6     13.6     13.6   100    34.3     4.302    -9.9    0.000    0.000      95        0.00    0.000    0.000     238.1    238.1    1.35   128.8     571.7     157.8     157.8      98.3      98.3      33.2    0.000     0.000     0.000     0.000     0.000    1.35     0.00    0.00      0   -9.90   -9.00        9.5        9.5        9.5        9.5        9.5        9.5        9.5        9.5       11.0       11.7       11.7       11.7        0.0        0.0        0.0        0.0        0.0        0.0        0.0        0.0        0.0        0.0        0.0        0.0      1.7      14.2      20.7      27.2      33.8    391.85
    15     8  2011    46     2     237.3     2.4     11.8    0.0    2.4    0.0      0.0      0.0   -9.90      1.1      1.1    100     13.9     13.9   100     15.0    15.0     100     17.0    1.37      0      0      0      0      0    85.7    85.7      0     0.97     13.9     13.9     13.9   100    34.3     4.634    -9.9    0.000    0.000      95        0.00    0.000    0.000     237.3    237.3    1.37   131.0     580.6     160.3     160.3     100.3     100.3      33.8    0.000     0.000     0.000     0.000     0.000    1.37     0.00    0.00      0   -9.90   -9.00        9.5        9.5        9.5        9.5        9.5        9.5        9.5        9.5       10.5       11.7       11.7       11.7        0.0        0.0        0.0        0.0        0.0        0.0        0.0        0.0        0.0        0.0        0.0        0.0      2.4      14.3      20.1      26.9      33.7    391.85
    16     8  2011    47     2     237.2    15.5      0.0    0.0   15.3    0.2      0.0      0.0   -9.90      1.0      1.0    100     14.3     14.3   100     15.3    15.3     100     16.8    1.40      0      0      0      0      0    87.1    87.1      0     0.98     14.3     14.3     14.3   100    34.3     4.970    -9.9    0.000    0.000      95        0.00    0.000    0.000     237.2    237.2    1.40   133.1     589.4     162.7     162.7     102.8     102.8      34.3    0.000     0.000     0.000     0.000     0.000    1.40     0.00    0.00      0   -9.90   -9.00       21.1        6.6        6.7        7.4        9.5        9.5        9.5        9.5       10.5       11.7       11.7       11.7        0.0        0.0        0.0        0.0        0.0        0.0        0.0        0.0        0.0        0.0        0.0        0.0     15.5      14.7      19.5      26.7      33.9    391.85
    17     8  2011    48     2     237.8     3.1     13.6    0.0    3.1    0.0      0.0      0.0   -9.90      0.9      0.9    100     15.2     15.2   100     16.1    16.1     100     17.3    1.42      0      0      0      0      0    88.3    88.3      0     0.99     15.2     15.2     15.2   100    34.3     5.308    -9.9    0.000    0.000      96        0.00    0.000    0.000     237.8    237.8    1.42   136.4     598.2     165.1     165.1     106.6     106.6      34.8    0.000     0.000     0.000     0.000     0.000    1.42     0.00    0.00      0   -9.90   -9.00        9.6        9.6        9.6        9.6        9.6        9.6        9.6        9.6       10.1       11.7       11.7       11.7        0.0        0.0        0.0        0.0        0.0        0.0        0.0        0.0        0.0        0.0        0.0        0.0      3.1      15.4      20.5      28.0      35.5    391.85
    18     8  2011    49     2     235.9     8.4      5.0    0.0    8.4    0.0      0.0      0.0   -9.90      0.8      0.8    100     14.5     14.5   100     15.3    15.3     100     16.0    1.44      0      0      0      0      0    89.4    89.4      0     0.99     14.5     14.5     14.5   100    34.3     5.649    -9.9    0.000    0.000      96        0.00    0.000    0.000     235.9    235.9    1.44   137.0     606.9     167.5     167.5     105.7     105.7      35.3    0.000     0.000     0.000     0.000     0.000    1.44     0.00    0.00      0   -9.90   -9.00        9.5        9.5        9.5        9.5        9.5        9.5        9.5        9.5        9.8       11.7       11.7       11.7        0.0        0.0        0.0        0.0        0.0        0.0        0.0        0.0        0.0        0.0        0.0        0.0      8.4      14.6      18.0      25.5      33.0    391.85
    19     8  2011    50     2     234.8     8.2      5.5    0.0    8.2    0.0      0.0      0.0   -9.90      0.7      0.7    100     14.2     14.2   100     14.8    14.8     100     16.9    1.46      0      0      0      0      0    90.2    90.2      0     1.00     14.2     14.2     14.2   100    34.3     5.992    -9.9    0.000    0.000      96        0.00    0.000    0.000     234.8    234.8    1.46   138.1     615.5     169.9     169.9     105.9     105.9      35.8    0.000     0.000     0.000     0.000     0.000    1.46     0.00    0.00      0   -9.90   -9.00        9.5        9.5        9.5        9.5        9.5        9.5        9.5        9.5        9.6       11.7       11.7       11.7        0.0        0.0        0.0        0.0        0.0        0.0        0.0        0.0        0.0        0.0        0.0        0.0      8.2      14.2      19.9      26.6      33.4    391.85
    20     8  2011    51     2     235.0     1.5     13.9    0.0    1.5    0.0      0.0      0.0   -9.90      0.6      0.6    100     14.5     14.5   100     15.1    15.1     100     17.1    1.48      3      0      0      0      0    90.9    90.9      0     1.00     14.5     14.5     14.5   100    34.3     6.337    -9.9    0.000    0.000      96        0.00    0.000    0.000     235.0    235.0    1.48   140.3     624.2     172.3     172.3     108.2     108.2      36.3    0.000     0.000     0.000     0.000     0.000    1.48     0.00    0.00      0   -9.90   -9.00        9.5        9.5        9.5        9.5        9.5        9.5        9.5        9.5        9.6       11.7       11.7       11.7        0.0        0.0        0.0        0.0        0.0        0.0        0.0        0.0        0.0        0.0        0.0        0.0      1.5      14.4      20.3      27.1      34.0    391.85
    21     8  2011    52     2     235.6     1.6     14.5    0.0    1.6    0.0      0.0      0.0   -9.90      0.5      0.5    100     15.0     15.0   100     15.5    15.5     100     17.3    1.50      2      0      0      0      0    91.5    91.5      0     1.01     15.0     15.0     15.0   100    34.3     6.682    -9.9    0.000    0.000      96        0.00    0.000    0.000     235.6    235.6    1.50   142.9     632.8     174.7     174.7     111.1     111.1      36.8    0.000     0.000     0.000     0.000     0.000    1.50     0.00    0.00      0   -9.90   -9.00        9.5        9.5        9.6        9.6        9.6        9.6        9.6        9.6        9.6       11.7       11.7       11.7        0.0        0.0        0.0        0.0        0.0        0.0        0.0        0.0        0.0        0.0        0.0        0.0      1.6      14.9      20.5      27.6      34.8    391.85
    22     8  2011    53     2     235.8    11.6      4.2    0.0   11.6    0.0      0.0      0.0   -9.90      0.5      0.5    100     15.2     15.2   100     15.6    15.6     100     17.8    1.52      0      0      0      0      0    92.1    92.1      0     1.01     15.2     15.2     15.2   100    34.3     7.030    -9.9    0.000    0.000      97        0.00    0.000    0.000     235.8    235.8    1.52   145.0     641.3     177.0     177.0     112.9     112.9      37.3    0.000     0.000     0.000     0.000     0.000    1.52     0.00    0.00      0   -9.90   -9.00        9.5        9.5        9.6        9.6        9.6        9.6        9.6        9.6        9.6       11.7       11.7       11.7        0.0        0.0        0.0        0.0        0.0        0.0        0.0        0.0        0.0        0.0        0.0        0.0     11.6      15.0      21.5      28.5      35.4    391.85
    23     8  2011    54     2     233.8     9.2      3.2    0.0    9.1    0.0      0.0      0.0   -9.90      0.4      0.4    100     13.9     13.9   100     14.4    14.4     100     17.6    1.54      0      0      0      0      0    92.5    92.5      0     1.02     13.9     13.9     13.9   100    34.3     7.378    -9.9    0.000    0.000      97        0.00    0.000    0.000     233.8    233.8    1.54   144.9     649.8     179.4     179.4     110.4     110.4      37.8    0.000     0.000     0.000     0.000     0.000    1.54     0.00    0.00      0   -9.90   -9.00        9.4        9.4        9.5        9.5        9.5        9.5        9.5        9.5        9.5       11.7       11.7       11.7        0.0        0.0        0.0        0.0        0.0        0.0        0.0        0.0        0.0        0.0        0.0        0.0      9.2      13.7      21.3      27.4      33.6    391.85
    24     8  2011    55     2     235.4     3.8     13.3    0.0    3.8    0.0      0.0      0.0   -9.90      0.4      0.4    100     15.1     15.1   100     15.5    15.5     100     17.3    1.56      0      0      0      0      0    92.9    92.9      0     1.02     15.1     15.1     15.1   100    34.3     7.727    -9.9    0.000    0.000      97        0.00    0.000    0.000     235.4    235.4    1.56   148.7     658.3     181.7     181.7     115.3     115.3      38.3    0.000     0.000     0.000     0.000     0.000    1.56     0.00    0.00      0   -9.90   -9.00        9.5        9.5        9.6        9.6        9.6        9.6        9.6        9.6        9.6       11.6       11.7       11.7        0.0        0.0        0.0        0.0        0.0        0.0        0.0        0.0        0.0        0.0        0.0        0.0      3.8      14.8      20.5      27.6      34.7    391.85
    25     8  2011    56     3     238.5    19.1      0.0    0.0   18.5    0.6      0.0      0.0   -9.90      0.4      0.4    100     15.0     15.0   100     15.4    15.4     100     16.7    1.58      0      0      0      0      0    93.2    93.2      0     1.02     15.0     15.0     15.0   100    34.3     8.076    -9.9    0.000    0.000      97        0.00    0.000    0.000     238.5    238.5    1.58   154.1     666.7     184.0     184.0     116.6     116.6      38.8    0.000     0.000     0.000     0.000     0.000    1.58     0.00    0.00      0   -9.90   -9.00       25.2        6.7        6.8        7.0        9.6        9.6        9.6        9.6        9.6       11.6       11.7       11.7        0.0        0.0        0.0        0.0        0.0        0.0        0.0        0.0        0.0        0.0        0.0        0.0     19.1      14.7      19.3      26.7      34.0    391.85
    26     8  2011    57     3     231.7     2.2      4.7    0.0    2.2    0.0      0.0      0.0   -9.90      0.3      0.3    100     13.5     13.5   100     13.8    13.8     100     16.4    1.60      0      0      0      0      0    93.4    93.4      0     1.02     13.5     13.5     13.5   100    34.3     8.426    -9.9    0.000    0.000      97        0.00    0.000    0.000     231.7    231.7    1.60   150.4     675.1     186.4     186.4     112.8     112.8      39.3    0.000     0.000     0.000     0.000     0.000    1.60     0.00    0.00      0   -9.90   -9.00        9.3        9.3        9.4        9.4        9.4        9.4        9.4        9.4        9.4       11.2       11.7       11.7        0.0        0.0        0.0        0.0        0.0        0.0        0.0        0.0        0.0        0.0        0.0        0.0      2.2      13.2      18.9      25.2      31.5    391.85
    27     8  2011    58     3     229.8     2.1      9.4    0.0    2.1    0.0      0.0      0.0   -9.90      0.3      0.3    100     13.1     13.1   100     13.4    13.4     100     17.3    1.62      1      0      0      0      0    93.6    93.6      0     1.02     13.1     13.1     13.1   100    34.3     8.777     1.5    0.133    0.147      97        0.02    0.000    0.000     229.8    229.8    1.62   151.7     683.5     188.7     188.7     112.9     112.9      39.8    0.000     0.000     0.000     0.000     0.000    1.62     0.00    0.00      0   -9.90   -9.00        9.3        9.3        9.4        9.4        9.4        9.4        9.4        9.4        9.4       10.7       11.7       11.7        0.0        0.0        0.0        0.0        0.0        0.0        0.0        0.0        0.0        0.0        0.0        0.0      2.1      12.8      20.5      26.2      31.9    391.85
    28     8  2011    59     3     232.0     1.2     16.4    0.0    1.2    0.0      0.0      0.0   -9.90      0.3      0.3    100     15.1     15.1   100     15.4    15.4     100     17.1    1.64      6      0      0      0      0    93.7    93.7      0     1.02     15.1     15.1     15.1   100    34.3     9.128     1.9    0.169    0.188      97        0.02    0.000    0.000     232.0    232.0    1.64   156.6     691.8     191.0     191.0     121.0     121.0      40.3    0.000     0.000     0.000     0.000     0.000    1.64     0.00    0.00      0   -9.90   -9.00        9.5        9.5        9.6        9.6        9.6        9.6        9.6        9.6        9.6       10.3       11.7       11.7        0.0        0.0        0.0        0.0        0.0        0.0        0.0        0.0        0.0        0.0        0.0        0.0      1.2      14.8      20.2      27.4      34.5    391.85
    29     8  2011    60     3     230.0     2.2     10.4    0.0    2.2    0.0      0.0      0.0   -9.90      0.3      0.3    100     14.4     14.4   100     14.7    14.7     100     17.0    1.66      0      0      0      0      0    93.8    93.8      0     1.02     14.4     14.4     14.4   100    34.3     9.479     2.3    0.214    0.238      97        0.03    0.000    0.000     230.0    230.0    1.66   157.1     700.1     193.3     193.3     120.0     120.0      40.8    0.000     0.000     0.000     0.000     0.000    1.66     0.00    0.00      0   -9.90   -9.00        9.4        9.4        9.5        9.5        9.5        9.5        9.5        9.5        9.5       10.0       11.7       11.7        0.0        0.0        0.0        0.0        0.0        0.0        0.0        0.0        0.0        0.0        0.0        0.0      2.2      14.1      20.1      26.8      33.5    391.85
    30     8  2011    61     3     230.5     9.8      6.1    0.0    9.8    0.0      0.0      0.0   -9.90      0.3      0.3    100     15.0     15.0   100     15.3    15.3     100     15.9    1.68      0      0      0      0      0    93.9    93.9      0     1.02     15.0     15.0     15.0   100    34.3     9.830     2.8    0.271    0.302      97        0.04    0.000    0.000     230.5    230.5    1.68   159.9     708.4     195.5     195.5     123.7     123.7      41.3    0.000     0.000     0.000     0.000     0.000    1.68     0.00    0.00      0   -9.90   -9.00        9.5        9.5        9.6        9.6        9.6        9.6        9.6        9.6        9.6        9.8       11.7       11.7        0.0        0.0        0.0        0.0        0.0        0.0        0.0        0.0        0.0        0.0        0.0        0.0      9.8      14.7      17.7      25.5      33.2    391.85
    31     8  2011    62     3     230.0     8.8      5.7    0.0    8.8    0.0      0.0      0.0   -9.90      0.4      0.4    100     14.7     14.7   100     15.1    15.1     100     17.0    1.70     -9      0      0      0      0    93.3    93.3      0     1.01     14.7     14.7     14.7   100    34.3    10.177     3.4    0.342    0.380      97        0.05    0.000    0.000     230.0    230.0    1.70   161.4     716.6     197.8     197.8     124.7     124.7      41.8    0.000     0.000     0.000     0.000     0.000    1.70     0.00    0.00      0   -9.90   -9.00        9.5        9.5        9.5        9.5        9.5        9.5        9.5        9.5        9.5        9.6       11.7       11.7        0.0        0.0        0.0        0.0        0.0        0.0        0.0        0.0        0.0        0.0        0.0        0.0      8.8      14.6      20.0      27.1      34.2    391.85
     1     9  2011    63     3     229.0     2.5     11.2    0.0    2.5    0.0      0.0      0.0   -9.90      0.3      0.3    100     14.3     14.3   100     14.6    14.6     100     16.3    1.71     -9      0      0      0      0    93.4    93.4      0     1.01     14.3     14.3     14.3   100    34.3    10.524     4.1    0.429    0.477      97        0.06    0.000    0.000     229.0    229.0    1.71   162.4     724.8     200.1     200.1     124.5     124.5      42.3    0.000     0.000     0.000     0.000     0.000    1.71     0.00    0.00      0   -9.90   -9.00        9.5        9.5        9.5        9.5        9.5        9.5        9.5        9.5        9.5        9.5       11.7       11.7        0.0        0.0        0.0        0.0        0.0        0.0        0.0        0.0        0.0        0.0        0.0        0.0      2.5      14.1      18.6      25.7      32.9    391.85
     2     9  2011    64     3     231.5     6.0     12.4    0.0    6.0    0.0      0.0      0.0   -9.90      0.4      0.4    100     15.6     15.6   100     16.0    16.0     100     16.0    1.73     -9      0      0      0      0    93.5    93.5      0     1.01     15.6     15.6     15.6   100    34.3    10.870     4.9    0.537    0.596      97        0.07    0.000    0.000     231.5    231.5    1.73   166.6     732.9     202.3     202.3     131.0     131.0      42.7    0.000     0.000     0.000     0.000     0.000    1.73     0.00    0.00      0   -9.90   -9.00        9.6        9.6        9.6        9.6        9.6        9.6        9.6        9.6        9.6        9.6       11.7       11.7        0.0        0.0        0.0        0.0        0.0        0.0        0.0        0.0        0.0        0.0        0.0        0.0      6.0      15.5      18.1      26.4      34.7    391.85
     3     9  2011    65     3     231.9    16.6      0.0    0.0   16.2    0.4      0.0      0.0   -9.90      0.3      0.3    100     15.4     15.4   100     15.8    15.8     100     16.9    1.75     -9      0      0      0      0    93.5    93.5      0     1.01     15.4     15.4     15.4   100    34.3    11.215     5.9    0.667    0.741      97        0.09    0.000    0.000     231.9    231.9    1.75   168.9     741.1     204.6     204.6     131.8     131.8      43.2    0.000     0.000     0.000     0.000     0.000    1.75     0.00    0.00      0   -9.90   -9.00       22.9        6.7        6.8        6.8        9.6        9.6        9.6        9.6        9.6        9.6       11.7       11.7        0.0        0.0        0.0        0.0        0.0        0.0        0.0        0.0        0.0        0.0        0.0        0.0     16.6      15.3      19.8      27.6      35.4    391.85
     4     9  2011    66     3     230.4     1.1     12.6    0.0    1.1    0.0      0.0      0.0   -9.90      0.3      0.3    100     14.9     14.9   100     15.3    15.3     100     17.1    1.77     -9      0      0      0      0    93.6    93.6      0     1.01     14.9     14.9     14.9   100    34.3    11.560     7.1    0.824    0.916      97        0.11    0.000    0.000     230.4    230.4    1.77   169.2     749.2     206.8     206.8     131.5     131.5      43.7    0.000     0.000     0.000     0.000     0.000    1.77     0.00    0.00      0   -9.90   -9.00        9.5        9.5        9.6        9.6        9.6        9.6        9.6        9.6        9.6        9.6       11.7       11.7        0.0        0.0        0.0        0.0        0.0        0.0        0.0        0.0        0.0        0.0        0.0        0.0      1.1      14.9      20.2      27.5      34.9    391.85
     5     9  2011    67     3     226.7     2.0      7.6    0.0    2.0    0.0      0.0      0.0   -9.90      0.3      0.3    100     13.0     13.0   100     13.3    13.3     100     18.3    1.79     -9      0      0      0      0    93.6    93.6      0     1.00     13.0     13.0     13.0   100    34.3    11.904     8.5    1.012    1.125      97        0.13    0.000    0.000     226.7    226.7    1.79   167.3     757.2     209.0     209.0     125.6     125.6      44.2    0.000     0.000     0.000     0.000     0.000    1.79     0.00    0.00      0   -9.90   -9.00        9.3        9.3        9.4        9.4        9.4        9.4        9.4        9.4        9.4        9.4       11.7       11.7        0.0        0.0        0.0        0.0        0.0        0.0        0.0        0.0        0.0        0.0        0.0        0.0      2.0      12.9      22.7      28.1      33.5    391.85
     6     9  2011    68     3     227.4    12.8      1.8    0.0   12.7    0.1      0.0      0.0   -9.90      0.3      0.3    100     13.5     13.5   100     13.8    13.8     100     17.3    1.81     -9      0      0      0      0    93.7    93.7      0     1.00     13.5     13.5     13.5   100    34.3    12.247    10.0    1.228    1.365      97        0.15    0.000    0.000     227.4    227.4    1.81   170.3     765.3     211.2     211.2     129.0     129.0      44.6    0.000     0.000     0.000     0.000     0.000    1.81     0.00    0.00      0   -9.90   -9.00        9.4        9.4        9.4        9.4        9.4        9.4        9.4        9.4        9.4        9.4       11.6       11.7        0.0        0.0        0.0        0.0        0.0        0.0        0.0        0.0        0.0        0.0        0.0        0.0     12.8      13.5      20.5      26.8      33.0    391.85
     7     9  2011    69     4     229.0     2.6     13.8    0.0    2.6    0.0      0.0      0.0   -9.90      0.3      0.3    100     14.6     14.6   100     14.9    14.9     100     16.6    1.83     -9      0      0      0      0    93.7    93.7      0     1.00     14.6     14.6     14.6   100    34.3    12.590    11.6    1.455    1.616      97        0.18    0.000    0.000     229.0    229.0    1.83   174.5     773.3     213.5     213.5     134.6     134.6      45.1    0.000     0.000     0.000     0.000     0.000    1.83     0.00    0.00      0   -9.90   -9.00        9.5        9.5        9.5        9.5        9.5        9.5        9.5        9.5        9.5        9.5       11.4       11.7        0.0        0.0        0.0        0.0        0.0        0.0        0.0        0.0        0.0        0.0        0.0        0.0      2.6      14.6      19.1      26.5      34.0    391.85
     8     9  2011    70     4     227.1     2.8      9.6    0.0    2.8    0.0      0.0      0.0   -9.90      0.3      0.3    100     14.0     14.0   100     14.3    14.3     100     17.6    1.85     -9      0      0      0      0    93.7    93.7      0     1.00     14.0     14.0     14.0   100    34.3    12.932    13.1    1.692    1.880      98        0.20    0.000    0.000     227.1    227.1    1.85   175.5     781.3     215.7     215.7     133.9     133.9      45.6    0.000     0.000     0.000     0.000     0.000    1.85     0.00    0.00      0   -9.90   -9.00        9.4        9.4        9.5        9.5        9.5        9.5        9.5        9.5        9.5        9.5       11.0       11.7        0.0        0.0        0.0        0.0        0.0        0.0        0.0        0.0        0.0        0.0        0.0        0.0      2.8      14.1      21.1      27.7      34.3    391.85
     9     9  2011    71     4     222.2     2.3      5.1    0.0    2.3    0.0      0.0      0.0   -9.90      0.3      0.3    100     12.0     12.0   100     12.3    12.3     100     16.8    1.87     -9      0      0      0      0    93.7    93.7      0     0.99     12.0     12.0     12.0   100    34.3    13.273    14.6    1.939    2.154      98        0.23    0.000    0.000     222.2    222.2    1.87   173.5     789.2     217.9     217.9     127.5     127.5      46.1    0.000     0.000     0.000     0.000     0.000    1.87     0.00    0.00      0   -9.90   -9.00        9.2        9.2        9.3        9.3        9.3        9.3        9.3        9.3        9.3        9.3       10.6       11.7        0.0        0.0        0.0        0.0        0.0        0.0        0.0        0.0        0.0        0.0        0.0        0.0      2.3      12.1      19.7      25.1      30.6    391.85
    10     9  2011    72     4     226.1    10.7      8.1    0.0   10.6    0.0      0.0      0.0   -9.90      0.3      0.3    100     14.5     14.5   100     14.8    14.8     100     17.3    1.89     -9      0      0      0      0    93.8    93.8      0     0.99     14.5     14.5     14.5   100    34.3    13.613    16.1    2.196    2.440      98        0.25    0.000    0.000     226.1    226.1    1.89   180.0     797.2     220.0     220.0     138.8     138.8      46.5    0.000     0.000     0.000     0.000     0.000    1.89     0.00    0.00      0   -9.90   -9.00        9.5        9.5        9.5        9.5        9.5        9.5        9.5        9.5        9.5        9.5       10.2       11.7        0.0        0.0        0.0        0.0        0.0        0.0        0.0        0.0        0.0        0.0        0.0        0.0     10.7      14.6      20.7      27.8      34.9    391.85
    11     9  2011    73     4     225.7     4.9      9.7    0.0    4.9    0.0      0.0      0.0   -9.90      0.3      0.3    100     14.6     14.6   100     14.9    14.9     100     16.3    1.90     -9      0      0      0      0    93.8    93.8      0     0.99     14.6     14.6     14.6   100    34.3    13.953    17.7    2.464    2.738      98        0.28    0.000    0.000     225.7    225.7    1.90   182.0     805.1     222.2     222.2     140.9     140.9      47.0    0.000     0.000     0.000     0.000     0.000    1.90     0.00    0.00      0   -9.90   -9.00        9.5        9.5        9.6        9.6        9.6        9.6        9.6        9.6        9.6        9.6        9.9       11.7        0.0        0.0        0.0        0.0        0.0        0.0        0.0        0.0        0.0        0.0        0.0        0.0      4.9      14.8      18.6      26.4      34.1    391.85
    12     9  2011    74     4     225.4     7.9      6.7    0.0    7.9    0.0      0.0      0.0   -9.90      0.3      0.3    100     14.6     14.6   100     15.0    15.0     100     15.9    1.92     -9      0      0      0      0    93.8    93.8      0     0.99     14.6     14.6     14.6   100    34.3    14.291    19.2    2.742    3.046      98        0.31    0.000    0.000     225.4    225.4    1.92   183.7     813.0     224.4     224.4     142.6     142.6      47.5    0.000     0.000     0.000     0.000     0.000    1.92     0.00    0.00      0   -9.90   -9.00        9.5        9.5        9.6        9.6        9.6        9.6        9.6        9.6        9.6        9.6        9.8       11.7        0.0        0.0        0.0        0.0        0.0        0.0        0.0        0.0        0.0        0.0        0.0        0.0      7.9      14.8      17.8      25.9      33.9    391.85
    13     9  2011    75     4     222.1     5.0      5.0    0.0    5.0    0.0      0.0      0.0   -9.90      0.3      0.3    100     13.1     13.1   100     13.4    13.4     100     17.3    1.94     -9      0      0      0      0    93.8    93.8      0     0.98     13.1     13.1     13.1   100    34.3    14.629    20.7    3.030    3.366      98        0.33    0.000    0.000     222.1    222.1    1.94   182.4     820.8     226.6     226.6     137.8     137.8      47.9    0.000     0.000     0.000     0.000     0.000    1.94     0.00    0.00      0   -9.90   -9.00        9.4        9.4        9.4        9.4        9.4        9.4        9.4        9.4        9.4        9.4        9.6       11.7        0.0        0.0        0.0        0.0        0.0        0.0        0.0        0.0        0.0        0.0        0.0        0.0      5.0      13.3      20.5      26.8      33.0    391.85
    14     9  2011    76     4     224.1     7.3      9.1    0.0    7.3    0.0      0.0      0.0   -9.90      0.4      0.4    100     14.0     14.0   100     14.4    14.4     100     17.2    1.96     -9      0     -9      0      0    93.3    93.3      0     0.97     14.0     14.0     14.0   100    34.3    14.962    22.2    3.327    3.697      98        0.36    0.000    0.000     224.1    224.1    1.96   186.2     828.6     228.7     228.7     143.7     143.7      48.4    0.000     0.000     0.000     0.000     0.000    1.96     0.00    0.00      0   -9.90   -9.00        9.5        9.5        9.5        9.5        9.5        9.5        9.5        9.5        9.5        9.5        9.5       11.7        0.0        0.0        0.0        0.0        0.0        0.0        0.0        0.0        0.0        0.0        0.0        0.0      7.3      14.4      20.3      27.5      34.6    391.85
    15     9  2011    77     4     222.2     7.5      4.0    0.0    7.5    0.0      0.0      0.0   -9.90      0.4      0.4    100     13.0     13.0   100     13.4    13.4     100     17.3    1.98     -9      0     -9      0      0    92.6    92.6      0     0.96     13.0     13.0     13.0   100    34.3    15.291    23.8    3.634    4.037      98        0.39    0.000    0.000     222.2    222.2    1.98   186.1     836.4     230.9     230.9     141.3     141.3      48.8    0.000     0.000     0.000     0.000     0.000    1.98     0.00    0.00      0   -9.90   -9.00        9.4        9.4        9.4        9.4        9.4        9.4        9.4        9.4        9.4        9.4        9.5       11.7        0.0        0.0        0.0        0.0        0.0        0.0        0.0        0.0        0.0        0.0        0.0        0.0      7.5      13.6      20.6      27.0      33.5    391.85
    16     9  2011    78     4     222.5     8.8      4.8    0.0    8.8    0.0      0.0      0.0   -9.90      0.5      0.5    100     12.9     12.9   100     13.4    13.4     100     16.8    2.00     -9      0     -9      0      0    91.8    91.8      0     0.94     12.9     12.9     12.9   100    34.3    15.615    25.3    3.949    4.388      98        0.42    0.000    0.000     222.5    222.5    2.00   188.1     844.2     233.0     233.0     143.2     143.2      49.3    0.000     0.000     0.000     0.000     0.000    2.00     0.00    0.00      0   -9.90   -9.00        9.4        9.4        9.5        9.5        9.5        9.5        9.5        9.5        9.5        9.5        9.5       11.7        0.0        0.0        0.0        0.0        0.0        0.0        0.0        0.0        0.0        0.0        0.0        0.0      8.8      13.7      19.5      26.3      33.1    391.85
    17     9  2011    79     4     223.2    14.4      0.1    0.0   14.2    0.2      0.0      0.0   -9.90      0.6      0.6    100     13.0     13.0   100     13.6    13.6     100     16.7    2.01     -9      0     -9      0      0    91.0    91.0      0     0.93     13.0     13.0     13.0   100    34.3    15.933    26.8    4.272    4.747      98        0.44    0.000    0.000     223.2    223.2    2.01   190.6     852.0     235.2     235.2     146.1     146.1      49.8    0.000     0.000     0.000     0.000     0.000    2.01     0.00    0.00      0   -9.90   -9.00        9.4        9.4        9.5        9.5        9.5        9.5        9.5        9.5        9.5        9.5        9.5       11.7        0.0        0.0        0.0        0.0        0.0        0.0        0.0        0.0        0.0        0.0        0.0        0.0     14.4      14.1      19.5      26.6      33.7    391.85
    18     9  2011    80     4     224.4     0.8     14.3    0.0    0.8    0.0      0.0      0.0   -9.90      0.7      0.7    100     13.2     13.2   100     13.9    13.9     100     17.5    2.03     -9      0     -9      0      0    90.0    90.0      0     0.91     13.2     13.2     13.2   100    34.3    16.245    28.3    4.604    5.115      98        0.47    0.000    0.000     224.4    224.4    2.03   193.5     859.7     237.3     237.3     149.7     149.7      50.2    0.000     0.000     0.000     0.000     0.000    2.03     0.00    0.00      0   -9.90   -9.00        9.5        9.5        9.5        9.5        9.5        9.5        9.5        9.5        9.5        9.5        9.5       11.7        0.0        0.0        0.0        0.0        0.0        0.0        0.0        0.0        0.0        0.0        0.0        0.0      0.8      14.6      21.1      28.2      35.4    391.85
    19     9  2011    81     4     223.9     7.5      5.5    0.0    7.5    0.0      0.0      0.0   -9.90      0.8      0.8    100     12.8     12.8   100     13.5    13.5     100     16.9    2.05     -9      0     -9      0      0    88.9    88.9      0     0.89     12.8     12.8     12.8   100    34.3    16.549    29.9    4.943    5.492      98        0.50    0.000    0.000     223.9    223.9    2.05   194.7     867.4     239.4     239.4     150.0     150.0      50.7    0.000     0.000     0.000     0.000     0.000    2.05     0.00    0.00      0   -9.90   -9.00        9.5        9.5        9.5        9.5        9.5        9.5        9.5        9.5        9.5        9.5        9.5       11.7        0.0        0.0        0.0        0.0        0.0        0.0        0.0        0.0        0.0        0.0        0.0        0.0      7.5      14.3      19.8      27.1      34.4    391.85
    20     9  2011    82     4     220.9     2.5      6.8    0.0    2.5    0.0      0.0      0.0   -9.90      0.8      0.8    100     11.4     11.4   100     12.2    12.2     100     17.6    2.07     -9      0     -9      0      0    87.7    87.7      0     0.87     11.4     11.4     11.4   100    34.3    16.846    31.4    5.288    5.876      98        0.53    0.000    0.000     220.9    220.9    2.07   194.3     875.1     241.5     241.5     146.3     146.3      51.1    0.000     0.000     0.000     0.000     0.000    2.07     0.00    0.00      0   -9.90   -9.00        9.3        9.3        9.4        9.4        9.4        9.4        9.4        9.4        9.4        9.4        9.4       11.5        0.0        0.0        0.0        0.0        0.0        0.0        0.0        0.0        0.0        0.0        0.0        0.0      2.5      13.2      21.3      27.4      33.5    391.85
    21     9  2011    83     4     223.1     7.9      7.4    0.0    7.9    0.0      0.0      0.0   -9.90      1.0      1.0    100     12.2     12.2   100     13.2    13.2     100     16.1    2.09     -9      0     -9      0      0    86.3    86.3      0     0.84     12.2     12.2     12.2   100    34.3    17.135    32.9    5.641    6.267      98        0.55    0.000    0.000     223.1    223.1    2.09   199.1     882.8     243.7     243.7     153.4     153.4      51.6    0.000     0.000     0.000     0.000     0.000    2.09     0.00    0.00      0   -9.90   -9.00        9.5        9.5        9.5        9.5        9.5        9.5        9.5        9.5        9.5        9.5        9.5       11.2        0.0        0.0        0.0        0.0        0.0        0.0        0.0        0.0        0.0        0.0        0.0        0.0      7.9      14.5      18.2      26.1      33.9    391.85
    22     9  2011    84     4     219.4     3.8      4.4    0.0    3.8    0.0      0.0      0.0   -9.90      1.0      1.0    100     10.8     10.8   100     11.9    11.9     100     17.9    2.10     -9      0     -9      0      0    84.8    84.8      0     0.82     10.8     10.8     10.8   100    34.3    17.415    34.4    5.998    6.665      98        0.58    0.000    0.000     219.4    219.4    2.10   198.3     890.4     245.8     245.8     149.2     149.2      52.0    0.000     0.000     0.000     0.000     0.000    2.10     0.00    0.00      0   -9.90   -9.00        9.4        9.4        9.4        9.4        9.4        9.4        9.4        9.4        9.4        9.4        9.4       10.8        0.0        0.0        0.0        0.0        0.0        0.0        0.0        0.0        0.0        0.0        0.0        0.0      3.8      13.3      21.8      27.9      34.0    391.85
    23     9  2011    85     4     219.2     6.5      5.3    0.0    6.5    0.0      0.0      0.0   -9.90      1.2      1.2    100     10.7     10.7   100     11.9    11.9     100     17.5    2.12     -9      0     -9      0      0    83.0    83.0      0     0.79     10.7     10.7     10.7   100    34.3    17.684    36.0    6.361    7.068      98        0.61    0.000    0.000     219.2    219.2    2.12   200.8     898.0     247.9     247.9     152.2     152.2      52.5    0.000     0.000     0.000     0.000     0.000    2.12     0.00    0.00      0   -9.90   -9.00        9.4        9.4        9.4        9.4        9.4        9.4        9.4        9.4        9.4        9.4        9.4       10.4        0.0        0.0        0.0        0.0        0.0        0.0        0.0        0.0        0.0        0.0        0.0        0.0      6.5      13.7      21.1      27.7      34.2    391.85
    24     9  2011    86     4     219.9     4.2      8.7    0.0    4.2    0.0      0.0      0.0   -9.90      1.4      1.4    100     10.8     10.8   100     12.2    12.2     100     17.1    2.14     -9      0     -9      0      0    81.0    81.0      0     0.75     10.8     10.8     10.8   100    34.3    17.943    37.5    6.728    7.475      98        0.64    0.000    0.000     219.9    219.9    2.14   203.8     905.6     250.0     250.0     156.6     156.6      52.9    0.000     0.000     0.000     0.000     0.000    2.14     0.00    0.00      0   -9.90   -9.00        9.5        9.5        9.5        9.5        9.5        9.5        9.5        9.5        9.5        9.5        9.5       10.1        0.0        0.0        0.0        0.0        0.0        0.0        0.0        0.0        0.0        0.0        0.0        0.0      4.2      14.3      20.2      27.5      34.8    391.85
    25     9  2011    87     4     219.4     2.0      9.5    0.0    2.0    0.0      0.0      0.0   -9.90      1.6      1.6    100     10.3     10.3   100     11.9    11.9     100     17.4    2.16     -9      0     -9      0      0    78.8    78.8      0     0.72     10.3     10.3     10.3   100    34.3    18.189    39.0    7.098    7.886      98        0.67    0.000    0.000     219.4    219.4    2.16   205.5     913.2     252.1     252.1     158.2     158.2      53.4    0.000     0.000     0.000     0.000     0.000    2.16     0.00    0.00      0   -9.90   -9.00        9.5        9.5        9.5        9.5        9.5        9.5        9.5        9.5        9.5        9.5        9.5        9.8        0.0        0.0        0.0        0.0        0.0        0.0        0.0        0.0        0.0        0.0        0.0        0.0      2.0      14.4      20.8      28.1      35.3    391.85
[...]
    10    12  2015    -9     0     210.5     4.3      0.0    0.0    4.3    0.0      0.0      0.0   -9.90     12.1      5.1     42      0.0      0.0   100     12.1     5.1      42     17.5    2.28     -9     -9     -9      0     -9     0.0     0.0      0    -9.00      0.0      0.0      0.0   100    34.5    19.686    48.2    9.484   10.537      98        0.83    0.000    0.000     210.5    210.5    2.28   208.8     965.7     266.5     266.5     150.7     165.9      56.5    0.000     0.000     0.000     0.000     0.000    2.28     0.00    0.00      0   -9.90   -9.00        3.1        8.7        9.5        9.5        9.5        9.5        9.5        9.5        9.5        9.5        9.5        9.5        0.0        0.0        0.0        0.0        0.0        0.0        0.0        0.0        0.0        0.0        0.0        0.0      4.3      11.0      21.0      27.4      33.8    401.01
    11    12  2015    -9     0     212.4     9.6      0.0    0.0    9.6    0.0      0.0      0.0   -9.90     12.2      7.6     62      0.0      0.0   100     12.2     7.6      62     16.8    2.28     -9     -9     -9      0     -9     0.0     0.0      0    -9.00      0.0      0.0      0.0   100    34.5    19.686    48.2    9.484   10.537      98        0.83    0.000    0.000     212.4    212.4    2.28   210.8     965.7     266.5     266.5     151.3     165.9      56.5    0.000     0.000     0.000     0.000     0.000    2.28     0.00    0.00      0   -9.90   -9.00        5.1        8.7        9.5        9.5        9.5        9.5        9.5        9.5        9.5        9.5        9.5        9.5        0.0        0.0        0.0        0.0        0.0        0.0        0.0        0.0        0.0        0.0        0.0        0.0      9.6      11.1      19.5      26.4      33.3    401.01
    12    12  2015    -9     0     213.6     9.7      0.0    0.0    9.7    0.0      0.0      0.0   -9.90     13.0      8.5     65      0.0      0.0   100     13.0     8.5      65     16.8    2.28     -9     -9     -9      0     -9     0.0     0.0      0    -9.00      0.0      0.0      0.0   100    34.5    19.686    48.2    9.484   10.537      98        0.83    0.000    0.000     213.6    213.6    2.28   212.0     965.7     266.5     266.5     154.7     165.9      56.5    0.000     0.000     0.000     0.000     0.000    2.28     0.00    0.00      0   -9.90   -9.00        6.3        8.7        9.5        9.5        9.5        9.5        9.5        9.5        9.5        9.5        9.5        9.5        0.0        0.0        0.0        0.0        0.0        0.0        0.0        0.0        0.0        0.0        0.0        0.0      9.7      11.8      19.6      27.1      34.6    401.01
    13    12  2015    -9     0     211.1     1.4      0.0    0.0    1.4    0.0      0.0      0.0   -9.90     12.8      3.9     31      0.0      0.0   100     12.8     3.9      31     16.8    2.28     -9     -9     -9      0     -9     0.0     0.0      0    -9.00      0.0      0.0      0.0   100    34.5    19.686    48.2    9.484   10.537      98        0.83    0.000    0.000     211.1    211.1    2.28   209.4     965.7     266.5     266.5     153.9     165.9      56.5    0.000     0.000     0.000     0.000     0.000    2.28     0.00    0.00      0   -9.90   -9.00        3.7        8.7        9.5        9.5        9.5        9.5        9.5        9.5        9.5        9.5        9.5        9.5        0.0        0.0        0.0        0.0        0.0        0.0        0.0        0.0        0.0        0.0        0.0        0.0      1.4      11.6      19.6      27.0      34.3    401.01
    14    12  2015    -9     0     210.4     4.2      0.0    0.0    4.2    0.0      0.0      0.0   -9.90     10.9      4.9     45      0.0      0.0   100     10.9     4.9      45     17.5    2.28     -9     -9     -9      0     -9     0.0     0.0      0    -9.00      0.0      0.0      0.0   100    34.5    19.686    48.2    9.484   10.537      98        0.83    0.000    0.000     210.4    210.4    2.28   208.7     965.7     266.5     266.5     145.7     165.9      56.5    0.000     0.000     0.000     0.000     0.000    2.28     0.00    0.00      0   -9.90   -9.00        3.0        8.7        9.5        9.5        9.5        9.5        9.5        9.5        9.5        9.5        9.5        9.5        0.0        0.0        0.0        0.0        0.0        0.0        0.0        0.0        0.0        0.0        0.0        0.0      4.2       9.9      20.9      26.4      32.0    401.01
    15    12  2015    -9     0     212.2     9.7      0.0    0.0    9.7    0.0      0.0      0.0   -9.90     13.2      7.9     60      0.0      0.0   100     13.2     7.9      60     16.5    2.28     -9     -9     -9      0     -9     0.0     0.0      0    -9.00      0.0      0.0      0.0   100    34.5    19.686    48.2    9.484   10.537      98        0.83    0.000    0.000     212.2    212.2    2.28   210.6     965.7     266.5     266.5     155.5     165.9      56.5    0.000     0.000     0.000     0.000     0.000    2.28     0.00    0.00      0   -9.90   -9.00        4.8        8.7        9.5        9.5        9.5        9.5        9.5        9.5        9.5        9.5        9.5        9.5        0.0        0.0        0.0        0.0        0.0        0.0        0.0        0.0        0.0        0.0        0.0        0.0      9.7      12.0      19.0      26.9      34.7    401.01
    16    12  2015    -9     0     216.0    12.6      0.0    0.0   12.6    0.0      0.0      0.0   -9.90     13.4      8.8     66      0.0      0.0   100     13.4     8.8      66     17.0    2.28     -9     -9     -9      0     -9     0.0     0.0      0    -9.00      0.0      0.0      0.0   100    34.5    19.686    48.2    9.484   10.537      98        0.83    0.000    0.000     216.0    216.0    2.28   214.3     965.7     266.5     266.5     156.6     165.9      56.5    0.000     0.000     0.000     0.000     0.000    2.28     0.00    0.00      0   -9.90   -9.00        8.7        8.7        9.5        9.5        9.5        9.5        9.5        9.5        9.5        9.5        9.5        9.5        0.0        0.0        0.0        0.0        0.0        0.0        0.0        0.0        0.0        0.0        0.0        0.0     12.6      12.2      20.1      27.9      35.7    401.01
    17    12  2015    -9     0     213.9     6.5      0.0    0.0    6.5    0.0      0.0      0.0   -9.90     13.3      8.6     64      0.0      0.0   100     13.3     8.6      64     16.6    2.28     -9     -9     -9      0     -9     0.0     0.0      0    -9.00      0.0      0.0      0.0   100    34.5    19.686    48.2    9.484   10.537      98        0.83    0.000    0.000     213.9    213.9    2.28   212.3     965.7     266.5     266.5     156.1     165.9      56.5    0.000     0.000     0.000     0.000     0.000    2.28     0.00    0.00      0   -9.90   -9.00        6.6        8.7        9.5        9.5        9.5        9.5        9.5        9.5        9.5        9.5        9.5        9.5        0.0        0.0        0.0        0.0        0.0        0.0        0.0        0.0        0.0        0.0        0.0        0.0      6.5      12.1      19.1      27.0      35.0    401.01
    18    12  2015    -9     0     211.7     3.4      0.0    0.0    3.4    0.0      0.0      0.0   -9.90     12.0      5.7     47      0.0      0.0   100     12.0     5.7      47     17.2    2.28     -9     -9     -9      0     -9     0.0     0.0      0    -9.00      0.0      0.0      0.0   100    34.5    19.686    48.2    9.484   10.537      98        0.83    0.000    0.000     211.7    211.7    2.28   210.0     965.7     266.5     266.5     150.1     165.9      56.5    0.000     0.000     0.000     0.000     0.000    2.28     0.00    0.00      0   -9.90   -9.00        4.3        8.7        9.5        9.5        9.5        9.5        9.5        9.5        9.5        9.5        9.5        9.5        0.0        0.0        0.0        0.0        0.0        0.0        0.0        0.0        0.0        0.0        0.0        0.0      3.4      10.9      20.4      26.9      33.3    401.01
    19    12  2015    -9     0     210.5     3.7      0.0    0.0    3.7    0.0      0.0      0.0   -9.90     12.1      4.9     40      0.0      0.0   100     12.1     4.9      40     17.4    2.28     -9     -9     -9      0     -9     0.0     0.0      0    -9.00      0.0      0.0      0.0   100    34.5    19.686    48.2    9.484   10.537      98        0.83    0.000    0.000     210.5    210.5    2.28   208.8     965.7     266.5     266.5     150.7     165.9      56.5    0.000     0.000     0.000     0.000     0.000    2.28     0.00    0.00      0   -9.90   -9.00        3.1        8.7        9.5        9.5        9.5        9.5        9.5        9.5        9.5        9.5        9.5        9.5        0.0        0.0        0.0        0.0        0.0        0.0        0.0        0.0        0.0        0.0        0.0        0.0      3.7      11.0      20.8      27.3      33.8    401.01
    20    12  2015    -9     0     212.0     8.7      0.0    0.0    8.7    0.0      0.0      0.0   -9.90     12.9      7.1     55      0.0      0.0   100     12.9     7.1      55     17.3    2.28     -9     -9     -9      0     -9     0.0     0.0      0    -9.00      0.0      0.0      0.0   100    34.5    19.686    48.2    9.484   10.537      98        0.83    0.000    0.000     212.0    212.0    2.28   210.4     965.7     266.5     266.5     154.2     165.9      56.5    0.000     0.000     0.000     0.000     0.000    2.28     0.00    0.00      0   -9.90   -9.00        4.6        8.7        9.5        9.5        9.5        9.5        9.5        9.5        9.5        9.5        9.5        9.5        0.0        0.0        0.0        0.0        0.0        0.0        0.0        0.0        0.0        0.0        0.0        0.0      8.7      11.7      20.6      27.8      35.0    401.01
    21    12  2015    -9     0     210.4     1.8      0.0    0.0    1.8    0.0      0.0      0.0   -9.90     12.4      3.3     27      0.0      0.0   100     12.4     3.3      27     17.6    2.28     -9     -9     -9      0     -9     0.0     0.0      0    -9.00      0.0      0.0      0.0   100    34.5    19.686    48.2    9.484   10.537      98        0.83    0.000    0.000     210.4    210.4    2.28   208.8     965.7     266.5     266.5     152.1     165.9      56.5    0.000     0.000     0.000     0.000     0.000    2.28     0.00    0.00      0   -9.90   -9.00        3.0        8.7        9.5        9.5        9.5        9.5        9.5        9.5        9.5        9.5        9.5        9.5        0.0        0.0        0.0        0.0        0.0        0.0        0.0        0.0        0.0        0.0        0.0        0.0      1.8      11.3      21.3      27.9      34.5    401.01
    22    12  2015    -9     0     209.5     2.1      0.0    0.0    2.1    0.0      0.0      0.0   -9.90     13.0      3.1     24      0.0      0.0   100     13.0     3.1      24     17.2    2.28     -9     -9     -9      0     -9     0.0     0.0      0    -9.00      0.0      0.0      0.0   100    34.5    19.686    48.2    9.484   10.537      98        0.83    0.000    0.000     209.5    209.5    2.28   207.8     965.7     266.5     266.5     154.8     165.9      56.5    0.000     0.000     0.000     0.000     0.000    2.28     0.00    0.00      0   -9.90   -9.00        2.0        8.7        9.5        9.5        9.5        9.5        9.5        9.5        9.5        9.5        9.5        9.5        0.0        0.0        0.0        0.0        0.0        0.0        0.0        0.0        0.0        0.0        0.0        0.0      2.1      11.8      20.4      27.8      35.1    401.01
    23    12  2015    -9     0     212.4    10.5      0.0    0.0   10.5    0.0      0.0      0.0   -9.90     12.4      7.6     61      0.0      0.0   100     12.4     7.6      61     17.1    2.28     -9     -9     -9      0     -9     0.0     0.0      0    -9.00      0.0      0.0      0.0   100    34.5    19.686    48.2    9.484   10.537      98        0.83    0.000    0.000     212.4    212.4    2.28   210.7     965.7     266.5     266.5     152.1     165.9      56.5    0.000     0.000     0.000     0.000     0.000    2.28     0.00    0.00      0   -9.90   -9.00        5.0        8.7        9.5        9.5        9.5        9.5        9.5        9.5        9.5        9.5        9.5        9.5        0.0        0.0        0.0        0.0        0.0        0.0        0.0        0.0        0.0        0.0        0.0        0.0     10.5      11.3      20.1      27.0      33.9    401.01
    24    12  2015    -9     0     210.5     1.9      0.0    0.0    1.9    0.0      0.0      0.0   -9.90     13.6      3.8     28      0.0      0.0   100     13.6     3.8      28     16.3    2.28     -9     -9     -9      0     -9     0.0     0.0      0    -9.00      0.0      0.0      0.0   100    34.5    19.686    48.2    9.484   10.537      98        0.83    0.000    0.000     210.5    210.5    2.28   208.8     965.7     266.5     266.5     157.3     165.9      56.5    0.000     0.000     0.000     0.000     0.000    2.28     0.00    0.00      0   -9.90   -9.00        3.1        8.7        9.5        9.5        9.5        9.5        9.5        9.5        9.5        9.5        9.5        9.5        0.0        0.0        0.0        0.0        0.0        0.0        0.0        0.0        0.0        0.0        0.0        0.0      1.9      12.3      18.6      26.9      35.2    401.01
    25    12  2015    -9     0     211.3     6.4      0.0    0.0    6.4    0.0      0.0      0.0   -9.90     11.7      5.6     48      0.0      0.0   100     11.7     5.6      48     17.9    2.28     -9     -9     -9      0     -9     0.0     0.0      0    -9.00      0.0      0.0      0.0   100    34.5    19.686    48.2    9.484   10.537      98        0.83    0.000    0.000     211.3    211.3    2.28   209.7     965.7     266.5     266.5     148.9     165.9      56.5    0.000     0.000     0.000     0.000     0.000    2.28     0.00    0.00      0   -9.90   -9.00        3.9        8.7        9.5        9.5        9.5        9.5        9.5        9.5        9.5        9.5        9.5        9.5        0.0        0.0        0.0        0.0        0.0        0.0        0.0        0.0        0.0        0.0        0.0        0.0      6.4      10.6      21.7      27.6      33.6    401.01
    26    12  2015    -9     0     212.0     7.1      0.0    0.0    7.1    0.0      0.0      0.0   -9.90     12.1      6.5     54      0.0      0.0   100     12.1     6.5      54     16.6    2.28     -9     -9     -9      0     -9     0.0     0.0      0    -9.00      0.0      0.0      0.0   100    34.5    19.686    48.2    9.484   10.537      98        0.83    0.000    0.000     212.0    212.0    2.28   210.3     965.7     266.5     266.5     150.8     165.9      56.5    0.000     0.000     0.000     0.000     0.000    2.28     0.00    0.00      0   -9.90   -9.00        4.6        8.7        9.5        9.5        9.5        9.5        9.5        9.5        9.5        9.5        9.5        9.5        0.0        0.0        0.0        0.0        0.0        0.0        0.0        0.0        0.0        0.0        0.0        0.0      7.1      11.0      19.2      26.1      32.9    401.01
    27    12  2015    -9     0     222.9    20.2      0.0    0.0   20.2    0.0      0.0      0.0   -9.90     12.5      9.2     74      0.0      0.0   100     12.5     9.2      74     17.3    2.28     -9     -9     -9      0     -9     0.0     0.0      0    -9.00      0.0      0.0      0.0   100    34.5    19.686    48.2    9.484   10.537      98        0.83    0.000    0.000     222.9    222.9    2.28   221.3     965.7     266.5     266.5     152.5     165.9      56.5    0.000     0.000     0.000     0.000     0.000    2.28     0.00    0.00      0   -9.90   -9.00       15.7        8.7        9.5        9.5        9.5        9.5        9.5        9.5        9.5        9.5        9.5        9.5        0.0        0.0        0.0        0.0        0.0        0.0        0.0        0.0        0.0        0.0        0.0        0.0     20.2      11.4      20.6      27.4      34.2    401.01
    28    12  2015    -9     0     217.7     3.0      0.0    0.0    3.0    0.0      0.0      0.0   -9.90     13.4      8.2     61      0.0      0.0   100     13.4     8.2      61     16.7    2.28     -9     -9     -9      0     -9     0.0     0.0      0    -9.00      0.0      0.0      0.0   100    34.5    19.686    48.2    9.484   10.537      98        0.83    0.000    0.000     217.7    217.7    2.28   216.0     965.7     266.5     266.5     156.4     165.9      56.5    0.000     0.000     0.000     0.000     0.000    2.28     0.00    0.00      0   -9.90   -9.00        6.8       11.1        9.5        9.5        9.5        9.5        9.5        9.5        9.5        9.5        9.5        9.5        0.0        0.0        0.0        0.0        0.0        0.0        0.0        0.0        0.0        0.0        0.0        0.0      3.0      12.2      19.3      27.2      35.1    401.01
    29    12  2015    -9     0     215.6     6.3      0.0    0.0    6.3    0.0      0.0      0.0   -9.90     12.8      8.4     65      0.0      0.0   100     12.8     8.4      65     16.6    2.28     -9     -9     -9      0     -9     0.0     0.0      0    -9.00      0.0      0.0      0.0   100    34.5    19.686    48.2    9.484   10.537      98        0.83    0.000    0.000     215.6    215.6    2.28   213.9     965.7     266.5     266.5     154.0     165.9      56.5    0.000     0.000     0.000     0.000     0.000    2.28     0.00    0.00      0   -9.90   -9.00        4.7       11.1        9.5        9.5        9.5        9.5        9.5        9.5        9.5        9.5        9.5        9.5        0.0        0.0        0.0        0.0        0.0        0.0        0.0        0.0        0.0        0.0        0.0        0.0      6.3      11.7      19.1      26.6      34.0    401.01
    30    12  2015    -9     0     214.6     6.8      0.0    0.0    6.8    0.0      0.0      0.0   -9.90     13.2      7.9     60      0.0      0.0   100     13.2     7.9      60     16.9    2.28     -9     -9     -9      0     -9     0.0     0.0      0    -9.00      0.0      0.0      0.0   100    34.5    19.686    48.2    9.484   10.537      98        0.83    0.000    0.000     214.6    214.6    2.28   212.9     965.7     266.5     266.5     155.6     165.9      56.5    0.000     0.000     0.000     0.000     0.000    2.28     0.00    0.00      0   -9.90   -9.00        3.7       11.1        9.5        9.5        9.5        9.5        9.5        9.5        9.5        9.5        9.5        9.5        0.0        0.0        0.0        0.0        0.0        0.0        0.0        0.0        0.0        0.0        0.0        0.0      6.8      12.0      19.9      27.4      35.0    401.01
    31    12  2015    -9     0     214.0     5.8      0.0    0.0    5.8    0.0      0.0      0.0   -9.90     12.9      6.4     50      0.0      0.0   100     12.9     6.4      50     16.5    2.28     -9     -9     -9      0     -9     0.0     0.0      0    -9.00      0.0      0.0      0.0   100    34.5    19.686    48.2    9.484   10.537      98        0.83    0.000    0.000     214.0    214.0    2.28   212.3     965.7     266.5     266.5     154.2     165.9      56.5    0.000     0.000     0.000     0.000     0.000    2.28     0.00    0.00      0   -9.90   -9.00        3.1       11.1        9.5        9.5        9.5        9.5        9.5        9.5        9.5        9.5        9.5        9.5        0.0        0.0        0.0        0.0        0.0        0.0        0.0        0.0        0.0        0.0        0.0        0.0      5.8      11.7      19.1      26.6      34.0    401.01
