AquaCrop 7.1 (August 2023) - Output created on (date) : 16-01-2026   at (time) : 12:17:13

    RunNr     Day1   Month1    Year1     Rain      ETo       GD     CO2      Irri   Infilt   Runoff    Drain   Upflow        E     E/Ex       Tr      TrW   Tr/Trx    SaltIn   SaltOut    SaltUp  SaltProf     Cycle   SaltStr  FertStr  WeedStr  TempStr   ExpStr   StoStr  BioMass  Brelative   HI    Y(dry)  Y(fresh)    WPet      Bin     Bout     DayN   MonthN    YearN
                                           mm       mm  degC.day    ppm        mm       mm       mm       mm       mm       mm        %       mm       mm        %    ton/ha    ton/ha    ton/ha    ton/ha      days       %        %        %        %        %        %    ton/ha        %       %    ton/ha   ton/ha    kg/m3   ton/ha   ton/ha
   Tot(1)        1        7     2011   1187.0   2430.8   3123.7   391.85    524.1   1179.2      7.8      4.6      0.0    918.6       53    811.6    811.6      100     0.000     0.000     0.000     0.000       89        0       30        0        0        2        0    19.564       98     48.2    9.425   10.472     0.83    0.000    0.000       31       12     2011  cluster_231.PRM
   Tot(2)        1        7     2012   1110.8   2458.1   3127.5   394.06    561.7   1108.8      2.0      0.0      0.0    884.3       51    839.6    839.6      100     0.000     0.000     0.000     0.000       89        0       30        0        0        0        0    19.961      100     48.2    9.616   10.685     0.81    0.000    0.000       31       12     2012  cluster_231.PRM
   Tot(3)        1        7     2013   1072.2   2433.6   3130.4   396.74    582.7   1071.2      1.0      0.0      0.0    882.1       51    829.2    829.2      100     0.000     0.000     0.000     0.000       89        0       30        0        0        0        0    19.959      100     48.2    9.616   10.684     0.82    0.000    0.000       31       12     2013  cluster_231.PRM
   Tot(4)        1        7     2014   1152.6   2432.7   3136.4   398.81    504.3   1146.1      6.4     10.2      0.0    865.3       50    829.1    829.1      100     0.000     0.000     0.000     0.000       89        0       30        0        0        0        0    19.944      100     48.1    9.602   10.669     0.82    0.000    0.000       31       12     2014  cluster_231.PRM
   Tot(5)        1        7     2015   1208.0   2448.2   3115.9   401.01    462.7   1202.0      6.0      3.8      0.0    891.5       51    824.0    824.0      100     0.000     0.000     0.000     0.000       89        0       30        0        0        1        0    19.686       98     48.2    9.484   10.537     0.83    0.000    0.000       31       12     2015  cluster_231.PRM
