AquaCrop 7.1 (August 2023) - Output created on (date) : 16-01-2026   at (time) : 12:17:10

   Run:   1
   Day Month  Year   DAP Stage   WC(2.30)   Rain     Irri   Surf   Infilt   RO    Drain       CR    Zgwt       Ex       E     E/Ex     Trx       Tr  Tr/Trx    ETx      ET  ET/ETx      GD       Z     StExp  StSto  StSen StSalt StWeed   CC      CCw     StTr  Kc(Tr)     Trx       Tr      TrW  Tr/Trx   WP    Biomass     HI    Y(dry)  Y(fresh)  Brelative    WPet      Bin     Bout  WC(2.30) Wr(2.30)     Z       Wr    Wr(SAT)    Wr(FC)   Wr(exp)   Wr(sto)   Wr(sen)   Wr(PWP)    SaltIn    SaltOut   SaltUp   Salt(2.30)  SaltZ     Z       ECe    ECsw   StSalt  Zgwt    ECgw       WC01       WC 2       WC 3       WC 4       WC 5       WC 6       WC 7       WC 8       WC 9       WC10       WC11       WC12      ECe01      ECe 2      ECe 3      ECe 4      ECe 5      ECe 6      ECe 7      ECe 8      ECe 9      ECe10      ECe11      ECe12     Rain       ETo      Tmin      Tavg      Tmax      CO2
                                      mm      mm       mm     mm     mm     mm       mm       mm      m        mm       mm     %        mm       mm    %        mm      mm       %  degC-day     m       %      %      %      %      %      %       %       %       -        mm       mm       mm    %     g/m2    ton/ha      %    ton/ha   ton/ha       %       kg/m3   ton/ha   ton/ha      mm       mm       m       mm        mm        mm        mm        mm        mm         mm    ton/ha    ton/ha    ton/ha    ton/ha    ton/ha     m      dS/m    dS/m      %     m      dS/m       0.05       0.18       0.33       0.48       0.63       0.80       1.00       1.20       1.43       1.68       1.93       2.18       0.05       0.18       0.33       0.48       0.63       0.80       1.00       1.20       1.43       1.68       1.93       2.18       mm        mm     degC      degC      degC       ppm
     1     7  2011     1     1     264.1     5.4      0.0    0.0    5.4    0.0      0.0      0.0   -9.90     16.6      9.9     59      0.0      0.0   100     16.6     9.9      59     16.3    0.30     -9     -9     -9      0     -9     0.0     0.0      0    -9.00      0.0      0.0      0.0   100     0.0     0.000    -9.9    0.000    0.000      -9        0.00    0.000    0.000     264.1    264.1    0.30    30.1     125.1      34.6      30.7      22.0      15.5       6.9    0.000     0.000     0.000     0.000     0.000    0.30     0.00    0.00      0   -9.90   -9.00        7.1       11.7       11.7       11.7       11.7       11.7       11.7       11.7       11.7       11.7       11.7       11.7        0.0        0.0        0.0        0.0        0.0        0.0        0.0        0.0        0.0        0.0        0.0        0.0      5.4      15.1      18.6      26.2      33.8    391.85
     2     7  2011     2     1     262.1     7.3      0.0    0.0    7.3    0.0      0.0      0.0   -9.90     16.2      9.2     57      0.0      0.0   100     16.2     9.2      57     16.7    0.30     -9     -9     -9      0     -9     0.0     0.0      0    -9.00      0.0      0.0      0.0   100     0.0     0.000    -9.9    0.000    0.000      -9        0.00    0.000    0.000     262.1    262.1    0.30    28.1     125.1      34.6      30.7      21.7      15.5       6.9    0.000     0.000     0.000     0.000     0.000    0.30     0.00    0.00      0   -9.90   -9.00        5.1       11.7       11.7       11.7       11.7       11.7       11.7       11.7       11.7       11.7       11.7       11.7        0.0        0.0        0.0        0.0        0.0        0.0        0.0        0.0        0.0        0.0        0.0        0.0      7.3      14.7      19.4      26.5      33.6    391.85
     3     7  2011     3     1     260.6     7.8      0.0    0.0    7.8    0.0      0.0      0.0   -9.90     17.9      9.3     52      0.0      0.0   100     17.9     9.3      52     16.8    0.30     -9     -9     -9      0     -9     0.0     0.0      0    -9.00      0.0      0.0      0.0   100     0.0     0.000    -9.9    0.000    0.000      -9        0.00    0.000    0.000     260.6    260.6    0.30    26.6     125.1      34.6      30.7      22.7      15.5       6.9    0.000     0.000     0.000     0.000     0.000    0.30     0.00    0.00      0   -9.90   -9.00        3.6       11.7       11.7       11.7       11.7       11.7       11.7       11.7       11.7       11.7       11.7       11.7        0.0        0.0        0.0        0.0        0.0        0.0        0.0        0.0        0.0        0.0        0.0        0.0      7.8      16.2      19.5      27.7      36.0    391.85
     4     7  2011     4     1     258.4     2.3      0.0    0.0    2.3    0.0      0.0      0.0   -9.90     16.9      4.6     27      0.0      0.0   100     16.9     4.6      27     17.1    0.30     -9     -9     -9      0     -9     0.0     0.0      0    -9.00      0.0      0.0      0.0   100     0.0     0.000    -9.9    0.000    0.000      -9        0.00    0.000    0.000     258.4    258.4    0.30    24.4     125.1      34.6      30.7      22.1      15.5       6.9    0.000     0.000     0.000     0.000     0.000    0.30     0.00    0.00      0   -9.90   -9.00        1.3       11.7       11.7       11.7       11.7       11.7       11.7       11.7       11.7       11.7       11.7       11.7        0.0        0.0        0.0        0.0        0.0        0.0        0.0        0.0        0.0        0.0        0.0        0.0      2.3      15.4      20.2      27.6      35.0    391.85
     5     7  2011     5     1     258.0     4.8      0.0    0.0    4.8    0.0      0.0      0.0   -9.90     14.0      5.1     36      0.0      0.0   100     14.0     5.1      36     17.8    0.32     -9     -9     -9      0     -9     0.0     0.0      0    -9.00      0.0      0.0      0.0   100     0.0     0.000    -9.9    0.000    0.000      -9        0.00    0.000    0.000     258.0    258.0    0.32    26.4     133.5      36.9      32.8      21.8      16.5       7.4    0.000     0.000     0.000     0.000     0.000    0.32     0.00    0.00      0   -9.90   -9.00        1.2       11.6       11.7       11.7       11.7       11.7       11.7       11.7       11.7       11.7       11.7       11.7        0.0        0.0        0.0        0.0        0.0        0.0        0.0        0.0        0.0        0.0        0.0        0.0      4.8      12.7      21.5      26.8      32.0    391.85
     6     7  2011     6     1     258.5     6.3      0.0    0.0    6.3    0.0      0.0      0.0   -9.90     15.4      5.8     38      0.0      0.0   100     15.4     5.8      38     16.5    0.36     -9     -9     -9      0     -9     0.0     0.0      0    -9.00      0.0      0.0      0.0   100     0.0     0.000    -9.9    0.000    0.000      -9        0.00    0.000    0.000     258.5    258.5    0.36    31.6     150.6      41.6      37.0      25.6      18.7       8.4    0.000     0.000     0.000     0.000     0.000    0.36     0.00    0.00      0   -9.90   -9.00        1.6       11.6       11.7       11.7       11.7       11.7       11.7       11.7       11.7       11.7       11.7       11.7        0.0        0.0        0.0        0.0        0.0        0.0        0.0        0.0        0.0        0.0        0.0        0.0      6.3      14.0      19.0      25.7      32.3    391.85
     7     7  2011     7     2     260.2     4.1      2.9    0.0    4.1    0.0      0.0      0.0   -9.90     16.5      5.2     31      0.1      0.1   100     16.6     5.3      32     16.3    0.40     -9      0      0      0      0     0.4     0.4      0     0.01      0.1      0.1      0.1   100    34.3     0.003    -9.9    0.000    0.000     100        0.00    0.000    0.000     260.2    260.2    0.40    37.7     166.4      46.0      46.0      29.2      29.2       9.3    0.000     0.000     0.000     0.000     0.000    0.40     0.00    0.00      0   -9.90   -9.00        9.6        9.6        9.6       11.7       11.7       11.7       11.7       11.7       11.7       11.7       11.7       11.7        0.0        0.0        0.0        0.0        0.0        0.0        0.0        0.0        0.0        0.0        0.0        0.0      4.1      15.1      18.5      26.1      33.7    391.85
     8     7  2011     8     2     262.3    13.3      0.0    0.0   13.2    0.1      0.0      0.0   -9.90     17.6     10.9     62      0.1      0.1   100     17.8    11.1      62     16.3    0.43     -9      0      0      0      0     0.5     0.5      0     0.01      0.1      0.1      0.1   100    34.3     0.006    -9.9    0.000    0.000     100        0.00    0.000    0.000     262.3    262.3    0.43    43.8     181.2      50.1      50.1      32.9      32.9      10.2    0.000     0.000     0.000     0.000     0.000    0.43     0.00    0.00      0   -9.90   -9.00       11.7        9.6        9.6       11.7       11.7       11.7       11.7       11.7       11.7       11.7       11.7       11.7        0.0        0.0        0.0        0.0        0.0        0.0        0.0        0.0        0.0        0.0        0.0        0.0     13.3      16.2      18.6      27.0      35.4    391.85
     9     7  2011     9     2     258.8     4.0      2.0    0.0    4.0    0.0      0.0      0.0   -9.90     16.4      9.3     57      0.2      0.2   100     16.6     9.5      57     17.4    0.47      0      0      0      0      0     0.6     0.6      0     0.01      0.2      0.2      0.2   100    34.3     0.010    -9.9    0.000    0.000     100        0.00    0.000    0.000     258.8    258.8    0.47    45.0     195.4      54.0      54.0      34.4      34.4      11.0    0.000     0.000     0.000     0.000     0.000    0.47     0.00    0.00      0   -9.90   -9.00        9.6        9.6        9.6       10.8       11.7       11.7       11.7       11.7       11.7       11.7       11.7       11.7        0.0        0.0        0.0        0.0        0.0        0.0        0.0        0.0        0.0        0.0        0.0        0.0      4.0      15.1      20.8      27.8      34.9    391.85
    10     7  2011    10     2     257.8     9.1      0.0    0.0    9.0    0.0      0.0      0.0   -9.90     16.2      9.8     61      0.2      0.2   100     16.4    10.0      61     16.8    0.50      0      0      0      0      0     0.7     0.7      0     0.01      0.2      0.2      0.2   100    34.3     0.014    -9.9    0.000    0.000     100        0.00    0.000    0.000     257.8    257.8    0.50    47.5     209.1      57.8      57.8      36.6      36.6      11.9    0.000     0.000     0.000     0.000     0.000    0.50     0.00    0.00      0   -9.90   -9.00        8.6        9.6        9.6       10.8       11.7       11.7       11.7       11.7       11.7       11.7       11.7       11.7        0.0        0.0        0.0        0.0        0.0        0.0        0.0        0.0        0.0        0.0        0.0        0.0      9.1      14.9      19.5      26.7      33.9    391.85
    11     7  2011    11     2     258.2     3.7      5.7    0.0    3.7    0.0      0.0      0.0   -9.90     18.2      8.7     48      0.3      0.3   100     18.4     9.0      49     16.0    0.53      0      0      0      0      0     0.8     0.8      0     0.02      0.3      0.3      0.3   100    34.3     0.019    -9.9    0.000    0.000     100        0.00    0.000    0.000     258.2    258.2    0.53    51.4     222.3      61.4      61.4      41.1      41.1      12.6    0.000     0.000     0.000     0.000     0.000    0.53     0.00    0.00      0   -9.90   -9.00        9.7        9.7        9.8        9.9       11.7       11.7       11.7       11.7       11.7       11.7       11.7       11.7        0.0        0.0        0.0        0.0        0.0        0.0        0.0        0.0        0.0        0.0        0.0        0.0      3.7      16.8      18.0      27.0      36.1    391.85
    12     7  2011    12     2     256.4     1.4      3.8    0.0    1.4    0.0      0.0      0.0   -9.90     15.5      6.9     44      0.3      0.3   100     15.8     7.1      45     16.5    0.56      2      0      0      0      0     1.0     1.0      0     0.02      0.3      0.3      0.3   100    34.3     0.025    -9.9    0.000    0.000     100        0.00    0.000    0.000     256.4    256.4    0.56    52.9     235.2      65.0      65.0      40.5      40.5      13.4    0.000     0.000     0.000     0.000     0.000    0.56     0.00    0.00      0   -9.90   -9.00        9.5        9.5        9.5        9.5       11.6       11.7       11.7       11.7       11.7       11.7       11.7       11.7        0.0        0.0        0.0        0.0        0.0        0.0        0.0        0.0        0.0        0.0        0.0        0.0      1.4      14.3      19.0      26.0      32.9    391.85
    13     7  2011    13     2     255.6     4.9      3.6    0.0    4.9    0.0      0.0      0.0   -9.90     15.4      9.0     59      0.3      0.3   100     15.7     9.3      59     17.5    0.59      0      0      0      0      0     1.2     1.2      0     0.02      0.3      0.3      0.3   100    34.3     0.032    -9.9    0.000    0.000     100        0.00    0.000    0.000     255.6    255.6    0.59    56.1     247.7      68.4      68.4      42.7      42.7      14.1    0.000     0.000     0.000     0.000     0.000    0.59     0.00    0.00      0   -9.90   -9.00        9.5        9.5        9.5        9.5       11.0       11.7       11.7       11.7       11.7       11.7       11.7       11.7        0.0        0.0        0.0        0.0        0.0        0.0        0.0        0.0        0.0        0.0        0.0        0.0      4.9      14.3      21.1      27.5      34.0    391.85
    14     7  2011    14     2     254.4     1.9      4.5    0.0    1.9    0.0      0.0      0.0   -9.90     15.2      7.1     47      0.3      0.3   100     15.6     7.5      48     17.1    0.62      1      0      0      0      0     1.4     1.4      0     0.02      0.3      0.3      0.3   100    34.3     0.041    -9.9    0.000    0.000     100        0.00    0.000    0.000     254.4    254.4    0.62    58.8     259.9      71.8      71.8      44.6      44.6      14.8    0.000     0.000     0.000     0.000     0.000    0.62     0.00    0.00      0   -9.90   -9.00        9.5        9.5        9.5        9.5       10.3       11.7       11.7       11.7       11.7       11.7       11.7       11.7        0.0        0.0        0.0        0.0        0.0        0.0        0.0        0.0        0.0        0.0        0.0        0.0      1.9      14.2      20.3      26.8      33.4    391.85
    15     7  2011    15     2     257.4    13.6      0.0    0.0   13.4    0.1      0.0      0.0   -9.90     15.3     10.0     66      0.4      0.4   100     15.7    10.4      67     16.7    0.65      0      0      0      0      0     1.6     1.6      0     0.03      0.4      0.4      0.4   100    34.3     0.051    -9.9    0.000    0.000     100        0.00    0.000    0.000     257.4    257.4    0.65    64.7     271.9      75.1      75.1      46.8      46.8      15.6    0.000     0.000     0.000     0.000     0.000    0.65     0.00    0.00      0   -9.90   -9.00       12.5        9.5        9.5        9.5       10.3       11.7       11.7       11.7       11.7       11.7       11.7       11.7        0.0        0.0        0.0        0.0        0.0        0.0        0.0        0.0        0.0        0.0        0.0        0.0     13.6      14.3      19.5      26.3      33.0    391.85
    16     7  2011    16     2     260.2    14.5      0.0    0.0   13.9    0.6      0.0      0.0   -9.90     16.1     10.7     66      0.5      0.5   100     16.6    11.2      67     16.0    0.67      0      0      0      0      0     1.9     1.9      0     0.03      0.5      0.5      0.5   100    34.3     0.062    -9.9    0.000    0.000     100        0.00    0.000    0.000     260.2    260.2    0.67    70.3     283.6      78.3      78.3      50.1      50.1      16.2    0.000     0.000     0.000     0.000     0.000    0.67     0.00    0.00      0   -9.90   -9.00       14.6        9.9        9.5        9.5       10.3       11.7       11.7       11.7       11.7       11.7       11.7       11.7        0.0        0.0        0.0        0.0        0.0        0.0        0.0        0.0        0.0        0.0        0.0        0.0     14.5      15.1      18.1      25.8      33.6    391.85
    17     7  2011    17     2     254.2     3.5      0.0    0.0    3.5    0.0      0.0      0.0   -9.90     15.0      8.8     59      0.6      0.6   100     15.6     9.4      60     17.6    0.70      0      0      0      0      0     2.3     2.3      0     0.04      0.6      0.6      0.6   100    34.3     0.076    -9.9    0.000    0.000     100        0.00    0.000    0.000     254.2    254.2    0.70    67.1     295.2      81.5      81.5      50.7      50.7      16.9    0.000     0.000     0.000     0.000     0.000    0.70     0.00    0.00      0   -9.90   -9.00        6.0       11.6        9.5        9.5       10.3       11.7       11.7       11.7       11.7       11.7       11.7       11.7        0.0        0.0        0.0        0.0        0.0        0.0        0.0        0.0        0.0        0.0        0.0        0.0      3.5      14.2      21.1      27.5      33.8    391.85
    18     7  2011    18     2     252.0     2.1      1.9    0.0    2.1    0.0      0.0      0.0   -9.90     14.2      5.6     40      0.6      0.6   100     14.8     6.2      42     17.7    0.73     10      0      0      0      0     2.6     2.6      0     0.05      0.6      0.6      0.6   100    34.3     0.092    -9.9    0.000    0.000      99        0.00    0.000    0.000     252.0    252.0    0.73    68.6     306.5      84.6      84.6      51.5      51.5      17.6    0.000     0.000     0.000     0.000     0.000    0.73     0.00    0.00      0   -9.90   -9.00        9.4        9.4        9.4        9.4        9.4       11.4       11.7       11.7       11.7       11.7       11.7       11.7        0.0        0.0        0.0        0.0        0.0        0.0        0.0        0.0        0.0        0.0        0.0        0.0      2.1      13.5      21.5      27.2      33.0    391.85
    19     7  2011    19     2     251.8     7.2      2.5    0.0    7.2    0.0      0.0      0.0   -9.90     15.1      9.2     61      0.8      0.8   100     15.9    10.0      63     17.3    0.75      0      0      0      0      0     3.1     3.1      0     0.05      0.8      0.8      0.8   100    34.3     0.111    -9.9    0.000    0.000      99        0.00    0.000    0.000     251.8    251.8    0.75    72.1     317.7      87.7      87.7      55.1      55.1      18.3    0.000     0.000     0.000     0.000     0.000    0.75     0.00    0.00      0   -9.90   -9.00        9.5        9.5        9.5        9.5        9.5       10.9       11.7       11.7       11.7       11.7       11.7       11.7        0.0        0.0        0.0        0.0        0.0        0.0        0.0        0.0        0.0        0.0        0.0        0.0      7.2      14.5      20.5      27.2      33.9    391.85
    20     7  2011    20     2     253.5    12.8      0.0    0.0   12.7    0.1      0.0      0.0   -9.90     15.1     10.0     67      0.9      0.9   100     16.0    11.0      69     17.2    0.78      0      0      0      0      0     3.6     3.6      0     0.06      0.9      0.9      0.9   100    34.3     0.133    -9.9    0.000    0.000      99        0.00    0.000    0.000     253.5    253.5    0.78    76.7     328.7      90.8      90.8      57.1      57.1      18.9    0.000     0.000     0.000     0.000     0.000    0.78     0.00    0.00      0   -9.90   -9.00       11.2        9.5        9.5        9.5        9.5       10.9       11.7       11.7       11.7       11.7       11.7       11.7        0.0        0.0        0.0        0.0        0.0        0.0        0.0        0.0        0.0        0.0        0.0        0.0     12.8      14.6      20.4      27.1      33.9    391.85
    21     7  2011    21     2     251.7     9.1      0.0    0.0    9.0    0.0      0.0      0.0   -9.90     14.9      9.8     66      1.1      1.1   100     16.0    10.9      68     16.5    0.81      0      0      0      0      0     4.3     4.3      0     0.08      1.1      1.1      1.1   100    34.3     0.158    -9.9    0.000    0.000      99        0.00    0.000    0.000     251.7    251.7    0.81    77.6     339.6      93.8      93.8      59.0      59.0      19.5    0.000     0.000     0.000     0.000     0.000    0.81     0.00    0.00      0   -9.90   -9.00        9.4        9.5        9.5        9.5        9.5       10.9       11.7       11.7       11.7       11.7       11.7       11.7        0.0        0.0        0.0        0.0        0.0        0.0        0.0        0.0        0.0        0.0        0.0        0.0      9.1      14.6      19.0      26.1      33.2    391.85
    22     7  2011    22     2     250.2     6.3      2.6    0.0    6.3    0.0      0.0      0.0   -9.90     14.8      9.1     61      1.3      1.3   100     16.1    10.4      64     17.4    0.83      0      0      0      0      0     5.1     5.1      0     0.09      1.3      1.3      1.3   100    34.3     0.189    -9.9    0.000    0.000      99        0.00    0.000    0.000     250.2    250.2    0.83    79.5     350.3      96.7      96.7      61.2      61.2      20.2    0.000     0.000     0.000     0.000     0.000    0.83     0.00    0.00      0   -9.90   -9.00        9.5        9.5        9.6        9.6        9.6       10.0       11.7       11.7       11.7       11.7       11.7       11.7        0.0        0.0        0.0        0.0        0.0        0.0        0.0        0.0        0.0        0.0        0.0        0.0      6.3      14.7      20.8      27.6      34.4    391.85
    23     7  2011    23     2     251.9     8.8      4.8    0.0    8.8    0.0      0.0      0.0   -9.90     17.1     10.2     59      1.8      1.8   100     18.9    12.0      63     16.7    0.86      0      0      0      0      0     6.0     6.0      0     0.10      1.8      1.8      1.8   100    34.3     0.224    -9.9    0.000    0.000      98        0.00    0.000    0.000     251.9    251.9    0.86    83.7     360.9      99.7      99.7      67.7      67.7      20.8    0.000     0.000     0.000     0.000     0.000    0.86     0.00    0.00      0   -9.90   -9.00        9.8        9.8        9.8        9.8        9.8        9.9       11.7       11.7       11.7       11.7       11.7       11.7        0.0        0.0        0.0        0.0        0.0        0.0        0.0        0.0        0.0        0.0        0.0        0.0      8.8      17.3      19.4      28.5      37.5    391.85
    24     7  2011    24     2     249.5     7.4      1.3    0.0    7.4    0.0      0.0      0.0   -9.90     14.5      9.3     64      1.8      1.8   100     16.3    11.1      68     17.4    0.88      0      0      0      0      0     7.1     7.1      0     0.12      1.8      1.8      1.8   100    34.3     0.266    -9.9    0.000    0.000      98        0.00    0.000    0.000     249.5    249.5    0.88    83.9     371.4     102.5     102.5      65.1      65.1      21.4    0.000     0.000     0.000     0.000     0.000    0.88     0.00    0.00      0   -9.90   -9.00        9.5        9.5        9.6        9.6        9.6        9.6       11.7       11.7       11.7       11.7       11.7       11.7        0.0        0.0        0.0        0.0        0.0        0.0        0.0        0.0        0.0        0.0        0.0        0.0      7.4      14.9      20.9      27.8      34.6    391.85
    25     7  2011    25     2     249.1     6.9      3.8    0.0    6.9    0.0      0.0      0.0   -9.90     13.9      9.0     65      2.1      2.1   100     15.9    11.1      70     17.0    0.91      0      0      0      0      0     8.3     8.3      0     0.14      2.1      2.1      2.1   100    34.3     0.315    -9.9    0.000    0.000      98        0.00    0.000    0.000     249.1    249.1    0.91    86.0     381.7     105.4     105.4      66.4      66.4      22.0    0.000     0.000     0.000     0.000     0.000    0.91     0.00    0.00      0   -9.90   -9.00        9.5        9.5        9.5        9.5        9.5        9.5       11.6       11.7       11.7       11.7       11.7       11.7        0.0        0.0        0.0        0.0        0.0        0.0        0.0        0.0        0.0        0.0        0.0        0.0      6.9      14.6      20.0      26.9      33.8    391.85
    26     7  2011    26     2     249.3    10.2      2.1    0.0   10.2    0.0      0.0      0.0   -9.90     14.3      9.5     66      2.6      2.6   100     16.9    12.1      71     16.4    0.93      0      0      0      0      0     9.8     9.8      0     0.17      2.6      2.6      2.6   100    34.3     0.372    -9.9    0.000    0.000      98        0.00    0.000    0.000     249.3    249.3    0.93    89.6     392.0     108.2     108.2      69.9      69.9      22.6    0.000     0.000     0.000     0.000     0.000    0.93     0.00    0.00      0   -9.90   -9.00        9.6        9.6        9.6        9.6        9.6        9.6       11.3       11.7       11.7       11.7       11.7       11.7        0.0        0.0        0.0        0.0        0.0        0.0        0.0        0.0        0.0        0.0        0.0        0.0     10.2      15.5      18.9      26.7      34.5    391.85
    27     7  2011    27     2     253.7    16.9      0.0    0.0   16.5    0.4      0.0      0.0   -9.90     12.5      9.5     76      2.7      2.7   100     15.2    12.2      80     17.5    0.95      0      0      0      0      0    11.6    11.6      0     0.19      2.7      2.7      2.7   100    34.3     0.439    -9.9    0.000    0.000      98        0.00    0.000    0.000     253.7    253.7    0.95    96.6     402.2     111.0     111.0      68.6      68.6      23.2    0.000     0.000     0.000     0.000     0.000    0.95     0.00    0.00      0   -9.90   -9.00       14.0        9.6        9.6        9.6        9.6        9.6       11.3       11.7       11.7       11.7       11.7       11.7        0.0        0.0        0.0        0.0        0.0        0.0        0.0        0.0        0.0        0.0        0.0        0.0     16.9      13.9      20.9      27.1      33.4    391.85
    28     7  2011    28     2     247.8     1.2      3.0    0.0    1.2    0.0      0.0      0.0   -9.90     13.2      6.7     51      3.5      3.5   100     16.6    10.1      61     17.0    0.98      0      0      0      0      0    13.7    13.7      0     0.23      3.5      3.5      3.5   100    34.3     0.516    -9.9    0.000    0.000      98        0.00    0.000    0.000     247.8    247.8    0.98    94.3     412.2     113.8     113.8      73.2      73.2      23.8    0.000     0.000     0.000     0.000     0.000    0.98     0.00    0.00      0   -9.90   -9.00        9.6        9.6        9.6        9.6        9.6        9.6       10.7       11.7       11.7       11.7       11.7       11.7        0.0        0.0        0.0        0.0        0.0        0.0        0.0        0.0        0.0        0.0        0.0        0.0      1.2      15.3      19.9      27.3      34.8    391.85
    29     7  2011    29     2     246.2     3.1      6.5    0.0    3.1    0.0      0.0      0.0   -9.90     12.1      7.3     60      3.9      3.9   100     16.0    11.2      70     16.5    1.00      0      0      0      0      0    16.1    16.1      0     0.26      3.9      3.9      3.9   100    34.3     0.606    -9.9    0.000    0.000      98        0.00    0.000    0.000     246.2    246.2    1.00    95.7     422.2     116.6     116.6      73.8      73.8      24.4    0.000     0.000     0.000     0.000     0.000    1.00     0.00    0.00      0   -9.90   -9.00        9.5        9.5        9.6        9.6        9.6        9.6       10.1       11.7       11.7       11.7       11.7       11.7        0.0        0.0        0.0        0.0        0.0        0.0        0.0        0.0        0.0        0.0        0.0        0.0      3.1      14.8      18.9      26.2      33.5    391.85
    30     7  2011    30     2     246.0     1.7      8.8    0.0    1.7    0.0      0.0      0.0   -9.90     11.9      6.1     51      4.6      4.6   100     16.5    10.7      65     16.9    1.02      2      0      0      0      0    18.9    18.9      0     0.30      4.6      4.6      4.6   100    34.3     0.711    -9.9    0.000    0.000      98        0.00    0.000    0.000     246.0    246.0    1.02    98.2     432.0     119.3     119.3      76.6      76.6      25.0    0.000     0.000     0.000     0.000     0.000    1.02     0.00    0.00      0   -9.90   -9.00        9.6        9.6        9.6        9.6        9.6        9.6        9.8       11.7       11.7       11.7       11.7       11.7        0.0        0.0        0.0        0.0        0.0        0.0        0.0        0.0        0.0        0.0        0.0        0.0      1.7      15.2      19.8      27.2      34.6    391.85
    31     7  2011    31     2     244.2     5.0      5.5    0.0    5.0    0.0      0.0      0.0   -9.90     10.1      7.4     73      4.9      4.9   100     15.0    12.3      82     18.0    1.05      0      0      0      0      0    22.3    22.3      0     0.35      4.9      4.9      4.9   100    34.3     0.832    -9.9    0.000    0.000      98        0.00    0.000    0.000     244.2    244.2    1.05    98.8     441.8     122.0     122.0      75.3      75.3      25.6    0.000     0.000     0.000     0.000     0.000    1.05     0.00    0.00      0   -9.90   -9.00        9.4        9.4        9.5        9.5        9.5        9.5        9.6       11.7       11.7       11.7       11.7       11.7        0.0        0.0        0.0        0.0        0.0        0.0        0.0        0.0        0.0        0.0        0.0        0.0      5.0      13.9      22.1      28.0      33.9    391.85
     1     8  2011    32     2     245.5     9.1      6.0    0.0    9.1    0.0      0.0      0.0   -9.90     10.1      7.8     77      6.1      6.1   100     16.3    13.9      86     16.1    1.07      0      0      0      0      0    26.3    26.3      0     0.41      6.1      6.1      6.1   100    34.3     0.971    -9.9    0.000    0.000      98        0.00    0.000    0.000     245.5    245.5    1.07   102.2     451.5     124.7     124.7      79.7      79.7      26.1    0.000     0.000     0.000     0.000     0.000    1.07     0.00    0.00      0   -9.90   -9.00        9.6        9.6        9.6        9.6        9.6        9.6        9.6       11.7       11.7       11.7       11.7       11.7        0.0        0.0        0.0        0.0        0.0        0.0        0.0        0.0        0.0        0.0        0.0        0.0      9.1      15.1      18.2      25.9      33.6    391.85
     2     8  2011    33     2     244.3     4.9      7.3    0.0    4.9    0.0      0.0      0.0   -9.90      8.6      6.8     79      6.6      6.6   100     15.2    13.4      88     17.5    1.09      0      0      0      0      0    31.1    31.1      0     0.47      6.6      6.6      6.6   100    34.3     1.131    -9.9    0.000    0.000      98        0.00    0.000    0.000     244.3    244.3    1.09   103.2     461.2     127.3     127.3      79.1      79.1      26.7    0.000     0.000     0.000     0.000     0.000    1.09     0.00    0.00      0   -9.90   -9.00        9.4        9.4        9.5        9.5        9.5        9.5        9.5       11.7       11.7       11.7       11.7       11.7        0.0        0.0        0.0        0.0        0.0        0.0        0.0        0.0        0.0        0.0        0.0        0.0      4.9      14.1      21.0      27.3      33.6    391.85
     3     8  2011    34     2     243.9     2.8     10.0    0.0    2.8    0.0      0.0      0.0   -9.90      7.6      5.8     77      7.5      7.5   100     15.0    13.3      88     18.0    1.12      0      0      0      0      0    36.6    36.6      0     0.53      7.5      7.5      7.5   100    34.3     1.313    -9.9    0.000    0.000      98        0.00    0.000    0.000     243.9    243.9    1.12   105.6     470.7     130.0     130.0      80.6      80.6      27.3    0.000     0.000     0.000     0.000     0.000    1.12     0.00    0.00      0   -9.90   -9.00        9.4        9.4        9.5        9.5        9.5        9.5        9.5       11.5       11.7       11.7       11.7       11.7        0.0        0.0        0.0        0.0        0.0        0.0        0.0        0.0        0.0        0.0        0.0        0.0      2.8      14.0      22.0      28.0      34.1    391.85
     4     8  2011    35     2     245.0     6.3     10.6    0.0    6.3    0.0      0.0      0.0   -9.90      7.2      6.3     88      9.5      9.5   100     16.6    15.8      95     16.3    1.14      0      0      0      0      0    43.2    43.2      0     0.61      9.5      9.5      9.5   100    34.3     1.521    -9.9    0.000    0.000      98        0.00    0.000    0.000     245.0    245.0    1.14   109.9     480.2     132.6     132.6      86.0      86.0      27.8    0.000     0.000     0.000     0.000     0.000    1.14     0.00    0.00      0   -9.90   -9.00        9.6        9.6        9.7        9.7        9.7        9.7        9.7       11.2       11.7       11.7       11.7       11.7        0.0        0.0        0.0        0.0        0.0        0.0        0.0        0.0        0.0        0.0        0.0        0.0      6.3      15.6      18.6      26.6      34.6    391.85
     5     8  2011    36     2     240.0     2.4      5.0    0.0    2.4    0.0      0.0      0.0   -9.90      4.7      4.1     88      8.4      8.4   100     13.0    12.5      96     17.4    1.16      0      0      0      0      0    50.7    50.7      0     0.68      8.4      8.4      8.4   100    34.3     1.755    -9.9    0.000    0.000      98        0.00    0.000    0.000     240.0    240.0    1.16   108.1     489.6     135.2     135.2      79.4      79.4      28.4    0.000     0.000     0.000     0.000     0.000    1.16     0.00    0.00      0   -9.90   -9.00        9.2        9.2        9.3        9.3        9.3        9.3        9.3       10.6       11.7       11.7       11.7       11.7        0.0        0.0        0.0        0.0        0.0        0.0        0.0        0.0        0.0        0.0        0.0        0.0      2.4      12.2      20.9      26.0      31.0    391.85
     6     8  2011    37     2     240.7    13.1      2.3    0.0   13.0    0.1      0.0      0.0   -9.90      4.3      4.3    100     10.2     10.2   100     14.5    14.5     100     16.9    1.18      0      0      0      0      0    57.5    57.5      0     0.75     10.2     10.2     10.2   100    34.3     2.011    -9.9    0.000    0.000      98        0.00    0.000    0.000     240.7    240.7    1.18   111.8     499.0     137.8     137.8      84.6      84.6      28.9    0.000     0.000     0.000     0.000     0.000    1.18     0.00    0.00      0   -9.90   -9.00        9.4        9.4        9.5        9.5        9.5        9.5        9.5       10.1       11.7       11.7       11.7       11.7        0.0        0.0        0.0        0.0        0.0        0.0        0.0        0.0        0.0        0.0        0.0        0.0     13.1      13.7      19.8      26.1      32.5    391.85
     7     8  2011    38     2     240.5     1.9     12.3    0.0    1.9    0.0      0.0      0.0   -9.90      3.7      3.3     91     11.2     11.2   100     14.8    14.5      98     17.7    1.20      1      0      0      0      0    63.2    63.2      0     0.80     11.2     11.2     11.2   100    34.3     2.284    -9.9    0.000    0.000      98        0.00    0.000    0.000     240.5    240.5    1.20   114.0     508.3     140.3     140.3      87.1      87.1      29.5    0.000     0.000     0.000     0.000     0.000    1.20     0.00    0.00      0   -9.90   -9.00        9.4        9.4        9.5        9.5        9.5        9.5        9.5        9.8       11.7       11.7       11.7       11.7        0.0        0.0        0.0        0.0        0.0        0.0        0.0        0.0        0.0        0.0        0.0        0.0      1.9      14.1      21.4      27.6      33.8    391.85
     8     8  2011    39     2     240.1     8.1      6.3    0.0    8.1    0.0      0.0      0.0   -9.90      3.1      3.1    100     11.7     11.7   100     14.8    14.8     100     17.8    1.23      0      0      0      0      0    68.0    68.0      0     0.84     11.7     11.7     11.7   100    34.3     2.571    -9.9    0.000    0.000      98        0.00    0.000    0.000     240.1    240.1    1.23   115.9     517.5     142.9     142.9      88.6      88.6      30.0    0.000     0.000     0.000     0.000     0.000    1.23     0.00    0.00      0   -9.90   -9.00        9.4        9.4        9.5        9.5        9.5        9.5        9.5        9.6       11.7       11.7       11.7       11.7        0.0        0.0        0.0        0.0        0.0        0.0        0.0        0.0        0.0        0.0        0.0        0.0      8.1      14.0      21.6      27.8      34.0    391.85
     9     8  2011    40     2     240.9     9.9      6.5    0.0    9.9    0.0      0.0      0.0   -9.90      2.7      2.7    100     12.9     12.9   100     15.6    15.6     100     17.2    1.25      0      0      0      0      0    72.2    72.2      0     0.87     12.9     12.9     12.9   100    34.3     2.870    -9.9    0.000    0.000      98        0.00    0.000    0.000     240.9    240.9    1.25   118.8     526.7     145.4     145.4      92.2      92.2      30.6    0.000     0.000     0.000     0.000     0.000    1.25     0.00    0.00      0   -9.90   -9.00        9.5        9.5        9.6        9.6        9.6        9.6        9.6        9.6       11.7       11.7       11.7       11.7        0.0        0.0        0.0        0.0        0.0        0.0        0.0        0.0        0.0        0.0        0.0        0.0      9.9      14.8      20.4      27.4      34.4    391.85
    10     8  2011    41     2     240.6     4.0     11.0    0.0    4.0    0.0      0.0      0.0   -9.90      2.3      2.3    100     13.1     13.1   100     15.3    15.3     100     16.7    1.27      0      0      0      0      0    75.7    75.7      0     0.90     13.1     13.1     13.1   100    34.3     3.177    -9.9    0.000    0.000      98        0.00    0.000    0.000     240.6    240.6    1.27   120.6     535.8     147.9     147.9      93.2      93.2      31.1    0.000     0.000     0.000     0.000     0.000    1.27     0.00    0.00      0   -9.90   -9.00        9.5        9.5        9.5        9.5        9.5        9.5        9.5        9.6       11.7       11.7       11.7       11.7        0.0        0.0        0.0        0.0        0.0        0.0        0.0        0.0        0.0        0.0        0.0        0.0      4.0      14.6      19.4      26.5      33.5    391.85
    11     8  2011    42     2     240.1     3.8     10.7    0.0    3.8    0.0      0.0      0.0   -9.90      1.9      1.9    100     13.1     13.1   100     15.0    15.0     100     17.3    1.29      0      0      0      0      0    78.7    78.7      0     0.92     13.1     13.1     13.1   100    34.3     3.492    -9.9    0.000    0.000      99        0.00    0.000    0.000     240.1    240.1    1.29   122.2     544.9     150.4     150.4      93.9      93.9      31.6    0.000     0.000     0.000     0.000     0.000    1.29     0.00    0.00      0   -9.90   -9.00        9.5        9.5        9.5        9.5        9.5        9.5        9.5        9.5       11.7       11.7       11.7       11.7        0.0        0.0        0.0        0.0        0.0        0.0        0.0        0.0        0.0        0.0        0.0        0.0      3.8      14.3      20.6      27.2      33.8    391.85
    12     8  2011    43     2     240.0     8.3      6.6    0.0    8.3    0.0      0.0      0.0   -9.90      1.6      1.6    100     13.4     13.4   100     15.1    15.1     100     16.9    1.31      0      0      0      0      0    81.2    81.2      0     0.94     13.4     13.4     13.4   100    34.3     3.813    -9.9    0.000    0.000      99        0.00    0.000    0.000     240.0    240.0    1.31   124.6     553.9     152.9     152.9      95.7      95.7      32.2    0.000     0.000     0.000     0.000     0.000    1.31     0.00    0.00      0   -9.90   -9.00        9.5        9.5        9.5        9.5        9.5        9.5        9.5        9.5       11.6       11.7       11.7       11.7        0.0        0.0        0.0        0.0        0.0        0.0        0.0        0.0        0.0        0.0        0.0        0.0      8.3      14.3      19.9      26.7      33.5    391.85
    13     8  2011    44     2     239.7    14.1      1.1    0.0   13.9    0.2      0.0      0.0   -9.90      1.4      1.4    100     13.9     13.9   100     15.3    15.3     100     17.3    1.33      0      0      0      0      0    83.3    83.3      0     0.95     13.9     13.9     13.9   100    34.3     4.140    -9.9    0.000    0.000      99        0.00    0.000    0.000     239.7    239.7    1.33   127.3     562.8     155.4     155.4      98.0      98.0      32.7    0.000     0.000     0.000     0.000     0.000    1.33     0.00    0.00      0   -9.90   -9.00        9.5        9.5        9.6        9.6        9.6        9.6        9.6        9.6       11.3       11.7       11.7       11.7        0.0        0.0        0.0        0.0        0.0        0.0        0.0        0.0        0.0        0.0        0.0        0.0     14.1      14.6      20.6      27.4      34.2    391.85
    14     8  2011    45     2     238.6     4.2      9.9    0.0    4.2    0.0      0.0      0.0   -9.90      1.2      1.2    100     14.0     14.0   100     15.2    15.2     100     16.8    1.35      0      0      0      0      0    85.1    85.1      0     0.96     14.0     14.0     14.0   100    34.3     4.471    -9.9    0.000    0.000      99        0.00    0.000    0.000     238.6    238.6    1.35   129.3     571.7     157.8     157.8      99.2      99.2      33.2    0.000     0.000     0.000     0.000     0.000    1.35     0.00    0.00      0   -9.90   -9.00        9.5        9.5        9.5        9.5        9.5        9.5        9.5        9.5       11.0       11.7       11.7       11.7        0.0        0.0        0.0        0.0        0.0        0.0        0.0        0.0        0.0        0.0        0.0        0.0      4.2      14.5      19.6      26.6      33.5    391.85
    15     8  2011    46     2     237.9     2.2     12.6    0.0    2.2    0.0      0.0      0.0   -9.90      1.1      1.1    100     14.4     14.4   100     15.5    15.5     100     16.6    1.37      0      0      0      0      0    86.7    86.7      0     0.98     14.4     14.4     14.4   100    34.3     4.805    -9.9    0.000    0.000      99        0.00    0.000    0.000     237.9    237.9    1.37   131.7     580.6     160.3     160.3     101.6     101.6      33.8    0.000     0.000     0.000     0.000     0.000    1.37     0.00    0.00      0   -9.90   -9.00        9.5        9.5        9.6        9.6        9.6        9.6        9.6        9.6       10.5       11.7       11.7       11.7        0.0        0.0        0.0        0.0        0.0        0.0        0.0        0.0        0.0        0.0        0.0        0.0      2.2      14.8      19.1      26.4      33.8    391.85
    16     8  2011    47     2     236.2    13.0      0.4    0.0   12.9    0.1      0.0      0.0   -9.90      0.9      0.9    100     14.0     14.0   100     14.9    14.9     100     16.7    1.40      0      0      0      0      0    88.0    88.0      0     0.98     14.0     14.0     14.0   100    34.3     5.143    -9.9    0.000    0.000      99        0.00    0.000    0.000     236.2    236.2    1.40   132.8     589.4     162.7     162.7     101.6     101.6      34.3    0.000     0.000     0.000     0.000     0.000    1.40     0.00    0.00      0   -9.90   -9.00        9.5        9.5        9.5        9.5        9.5        9.5        9.5        9.5       10.1       11.7       11.7       11.7        0.0        0.0        0.0        0.0        0.0        0.0        0.0        0.0        0.0        0.0        0.0        0.0     13.0      14.3      19.4      26.3      33.2    391.85
    17     8  2011    48     2     236.5     5.6     10.3    0.0    5.6    0.0      0.0      0.0   -9.90      0.8      0.8    100     14.8     14.8   100     15.6    15.6     100     17.2    1.42      0      0      0      0      0    89.1    89.1      0     0.99     14.8     14.8     14.8   100    34.3     5.483    -9.9    0.000    0.000      99        0.00    0.000    0.000     236.5    236.5    1.42   135.5     598.2     165.1     165.1     105.2     105.2      34.8    0.000     0.000     0.000     0.000     0.000    1.42     0.00    0.00      0   -9.90   -9.00        9.5        9.5        9.6        9.6        9.6        9.6        9.6        9.6        9.9       11.7       11.7       11.7        0.0        0.0        0.0        0.0        0.0        0.0        0.0        0.0        0.0        0.0        0.0        0.0      5.6      14.9      20.4      27.5      34.7    391.85
    18     8  2011    49     2     236.7    14.8      1.5    0.0   14.7    0.2      0.0      0.0   -9.90      0.7      0.7    100     15.3     15.3   100     16.0    16.0     100     17.5    1.44      0      0      0      0      0    90.0    90.0      0     1.00     15.3     15.3     15.3   100    34.3     5.825    -9.9    0.000    0.000      99        0.00    0.000    0.000     236.7    236.7    1.44   137.9     606.9     167.5     167.5     107.9     107.9      35.3    0.000     0.000     0.000     0.000     0.000    1.44     0.00    0.00      0   -9.90   -9.00        9.6        9.6        9.6        9.6        9.6        9.6        9.6        9.6        9.7       11.7       11.7       11.7        0.0        0.0        0.0        0.0        0.0        0.0        0.0        0.0        0.0        0.0        0.0        0.0     14.8      15.3      21.0      28.3      35.5    391.85
    19     8  2011    50     2     237.2    10.8      6.2    0.0   10.7    0.0      0.0      0.0   -9.90      0.7      0.7    100     15.8     15.8   100     16.5    16.5     100     16.5    1.46      0      0      0      0      0    90.8    90.8      0     1.00     15.8     15.8     15.8   100    34.3     6.170    -9.9    0.000    0.000      99        0.00    0.000    0.000     237.2    237.2    1.46   140.4     615.5     169.9     169.9     110.7     110.7      35.8    0.000     0.000     0.000     0.000     0.000    1.46     0.00    0.00      0   -9.90   -9.00        9.6        9.6        9.7        9.7        9.7        9.7        9.7        9.7        9.7       11.7       11.7       11.7        0.0        0.0        0.0        0.0        0.0        0.0        0.0        0.0        0.0        0.0        0.0        0.0     10.8      15.7      18.9      27.1      35.2    391.85
    20     8  2011    51     2     234.4     6.1      5.9    0.0    6.1    0.0      0.0      0.0   -9.90      0.5      0.5    100     14.2     14.2   100     14.7    14.7     100     17.2    1.48      0      0      0      0      0    91.5    91.5      0     1.01     14.2     14.2     14.2   100    34.3     6.515    -9.9    0.000    0.000      99        0.00    0.000    0.000     234.4    234.4    1.48   139.7     624.2     172.3     172.3     106.9     106.9      36.3    0.000     0.000     0.000     0.000     0.000    1.48     0.00    0.00      0   -9.90   -9.00        9.4        9.4        9.5        9.5        9.5        9.5        9.5        9.5        9.5       11.7       11.7       11.7        0.0        0.0        0.0        0.0        0.0        0.0        0.0        0.0        0.0        0.0        0.0        0.0      6.1      14.0      20.5      27.0      33.5    391.85
    21     8  2011    52     2     235.9     2.8     14.4    0.0    2.8    0.0      0.0      0.0   -9.90      0.5      0.5    100     15.2     15.2   100     15.7    15.7     100     16.8    1.50      0      0      0      0      0    92.0    92.0      0     1.01     15.2     15.2     15.2   100    34.3     6.862    -9.9    0.000    0.000      99        0.00    0.000    0.000     235.9    235.9    1.50   143.1     632.8     174.7     174.7     111.5     111.5      36.8    0.000     0.000     0.000     0.000     0.000    1.50     0.00    0.00      0   -9.90   -9.00        9.5        9.5        9.6        9.6        9.6        9.6        9.6        9.6        9.6       11.7       11.7       11.7        0.0        0.0        0.0        0.0        0.0        0.0        0.0        0.0        0.0        0.0        0.0        0.0      2.8      15.0      19.5      27.0      34.4    391.85
    22     8  2011    53     2     234.2     2.2     10.7    0.0    2.2    0.0      0.0      0.0   -9.90      0.4      0.4    100     14.2     14.2   100     14.6    14.6     100     17.0    1.52      0      0      0      0      0    92.5    92.5      0     1.01     14.2     14.2     14.2   100    34.3     7.210    -9.9    0.000    0.000      99        0.00    0.000    0.000     234.2    234.2    1.52   143.4     641.3     177.0     177.0     109.7     109.7      37.3    0.000     0.000     0.000     0.000     0.000    1.52     0.00    0.00      0   -9.90   -9.00        9.4        9.4        9.5        9.5        9.5        9.5        9.5        9.5        9.5       11.7       11.7       11.7        0.0        0.0        0.0        0.0        0.0        0.0        0.0        0.0        0.0        0.0        0.0        0.0      2.2      14.0      19.9      26.5      33.1    391.85
    23     8  2011    54     2     235.7     2.5     14.6    0.0    2.5    0.0      0.0      0.0   -9.90      0.4      0.4    100     15.2     15.2   100     15.6    15.6     100     16.7    1.54      0      0      0      0      0    92.9    92.9      0     1.02     15.2     15.2     15.2   100    34.3     7.559    -9.9    0.000    0.000      99        0.00    0.000    0.000     235.7    235.7    1.54   146.8     649.8     179.4     179.4     114.2     114.2      37.8    0.000     0.000     0.000     0.000     0.000    1.54     0.00    0.00      0   -9.90   -9.00        9.5        9.5        9.6        9.6        9.6        9.6        9.6        9.6        9.6       11.7       11.7       11.7        0.0        0.0        0.0        0.0        0.0        0.0        0.0        0.0        0.0        0.0        0.0        0.0      2.5      14.9      19.4      26.8      34.2    391.85
    24     8  2011    55     2     233.8     1.4     11.1    0.0    1.4    0.0      0.0      0.0   -9.90      0.3      0.3    100     14.1     14.1   100     14.4    14.4     100     17.0    1.56      3      0      0      0      0    93.2    93.2      0     1.02     14.1     14.1     14.1   100    34.3     7.909    -9.9    0.000    0.000      99        0.00    0.000    0.000     233.8    233.8    1.56   147.1     658.3     181.7     181.7     112.1     112.1      38.3    0.000     0.000     0.000     0.000     0.000    1.56     0.00    0.00      0   -9.90   -9.00        9.4        9.4        9.5        9.5        9.5        9.5        9.5        9.5        9.5       11.6       11.7       11.7        0.0        0.0        0.0        0.0        0.0        0.0        0.0        0.0        0.0        0.0        0.0        0.0      1.4      13.8      20.1      26.6      33.0    391.85
    25     8  2011    56     3     233.6     2.0     12.5    0.0    2.0    0.0      0.0      0.0   -9.90      0.3      0.3    100     14.4     14.4   100     14.7    14.7     100     17.5    1.58      1      0      0      0      0    93.4    93.4      0     1.02     14.4     14.4     14.4   100    34.3     8.259    -9.9    0.000    0.000      99        0.00    0.000    0.000     233.6    233.6    1.58   149.7     666.7     184.0     184.0     114.3     114.3      38.8    0.000     0.000     0.000     0.000     0.000    1.58     0.00    0.00      0   -9.90   -9.00        9.4        9.4        9.5        9.5        9.5        9.5        9.5        9.5        9.5       11.4       11.7       11.7        0.0        0.0        0.0        0.0        0.0        0.0        0.0        0.0        0.0        0.0        0.0        0.0      2.0      14.1      20.9      27.4      33.8    391.85
    26     8  2011    57     3     234.3     9.9      6.5    0.0    9.9    0.0      0.0      0.0   -9.90      0.3      0.3    100     15.4     15.4   100     15.7    15.7     100     16.5    1.60      0      0      0      0      0    93.7    93.7      0     1.02     15.4     15.4     15.4   100    34.3     8.610    -9.9    0.000    0.000      99        0.00    0.000    0.000     234.3    234.3    1.60   153.4     675.1     186.4     186.4     119.0     119.0      39.3    0.000     0.000     0.000     0.000     0.000    1.60     0.00    0.00      0   -9.90   -9.00        9.5        9.5        9.6        9.6        9.6        9.6        9.6        9.6        9.6       11.1       11.7       11.7        0.0        0.0        0.0        0.0        0.0        0.0        0.0        0.0        0.0        0.0        0.0        0.0      9.9      15.0      18.9      26.6      34.2    391.85
    27     8  2011    58     3     234.2     7.3      8.8    0.0    7.3    0.0      0.0      0.0   -9.90      0.3      0.3    100     15.9     15.9   100     16.2    16.2     100     16.4    1.62      0      0      0      0      0    93.8    93.8      0     1.02     15.9     15.9     15.9   100    34.3     8.961     1.5    0.135    0.150      99        0.02    0.000    0.000     234.2    234.2    1.62   156.1     683.5     188.7     188.7     122.2     122.2      39.8    0.000     0.000     0.000     0.000     0.000    1.62     0.00    0.00      0   -9.90   -9.00        9.6        9.6        9.6        9.6        9.6        9.6        9.6        9.6        9.6       10.7       11.7       11.7        0.0        0.0        0.0        0.0        0.0        0.0        0.0        0.0        0.0        0.0        0.0        0.0      7.3      15.5      18.7      26.8      34.9    391.85
    28     8  2011    59     3     232.1     8.2      5.2    0.0    8.2    0.0      0.0      0.0   -9.90      0.3      0.3    100     15.2     15.2   100     15.5    15.5     100     16.1    1.64      0      0      0      0      0    94.0    94.0      0     1.02     15.2     15.2     15.2   100    34.3     9.313     1.9    0.172    0.191      99        0.02    0.000    0.000     232.1    232.1    1.64   156.8     691.8     191.0     191.0     121.3     121.3      40.3    0.000     0.000     0.000     0.000     0.000    1.64     0.00    0.00      0   -9.90   -9.00        9.5        9.5        9.6        9.6        9.6        9.6        9.6        9.6        9.6       10.3       11.7       11.7        0.0        0.0        0.0        0.0        0.0        0.0        0.0        0.0        0.0        0.0        0.0        0.0      8.2      14.8      18.1      25.9      33.6    391.85
    29     8  2011    60     3     231.6     3.4     11.8    0.0    3.4    0.0      0.0      0.0   -9.90      0.3      0.3    100     15.4     15.4   100     15.7    15.7     100     17.2    1.66      0      0      0      0      0    94.1    94.1      0     1.03     15.4     15.4     15.4   100    34.3     9.664     2.3    0.219    0.243      99        0.03    0.000    0.000     231.6    231.6    1.66   158.7     700.1     193.3     193.3     123.3     123.3      40.8    0.000     0.000     0.000     0.000     0.000    1.66     0.00    0.00      0   -9.90   -9.00        9.5        9.5        9.6        9.6        9.6        9.6        9.6        9.6        9.6       10.0       11.7       11.7        0.0        0.0        0.0        0.0        0.0        0.0        0.0        0.0        0.0        0.0        0.0        0.0      3.4      15.0      20.4      27.7      35.0    391.85
    30     8  2011    61     3     228.9     6.3      5.3    0.0    6.3    0.0      0.0      0.0   -9.90      0.1      0.1    100     14.2     14.2   100     14.3    14.3     100     17.7    1.68      0      0      0      0      0    95.3    95.3      0     1.03     14.2     14.2     14.2   100    34.3    10.019     2.8    0.277    0.307      99        0.04    0.000    0.000     228.9    228.9    1.68   158.3     708.4     195.5     195.5     120.3     120.3      41.3    0.000     0.000     0.000     0.000     0.000    1.68     0.00    0.00      0   -9.90   -9.00        9.4        9.4        9.5        9.5        9.5        9.5        9.5        9.5        9.5        9.7       11.7       11.7        0.0        0.0        0.0        0.0        0.0        0.0        0.0        0.0        0.0        0.0        0.0        0.0      6.3      13.7      21.4      27.6      33.8    391.85
    31     8  2011    62     3     230.4     0.5     16.5    0.0    0.5    0.0      0.0      0.0   -9.90      0.1      0.1    100     15.3     15.3   100     15.4    15.4     100     17.5    1.70     -9      0      0      0      0    95.4    95.4      0     1.03     15.3     15.3     15.3   100    34.3    10.373     3.4    0.349    0.387      99        0.05    0.000    0.000     230.4    230.4    1.70   161.8     716.6     197.8     197.8     125.6     125.6      41.8    0.000     0.000     0.000     0.000     0.000    1.70     0.00    0.00      0   -9.90   -9.00        9.5        9.5        9.6        9.6        9.6        9.6        9.6        9.6        9.6        9.6       11.7       11.7        0.0        0.0        0.0        0.0        0.0        0.0        0.0        0.0        0.0        0.0        0.0        0.0      0.5      14.8      20.9      28.0      35.1    391.85
     1     9  2011    63     3     229.0     8.3      5.0    0.0    8.3    0.0      0.0      0.0   -9.90      0.1      0.1    100     14.5     14.5   100     14.7    14.7     100     16.9    1.71     -9      0      0      0      0    95.5    95.5      0     1.03     14.5     14.5     14.5   100    34.3    10.726     4.1    0.438    0.486      99        0.06    0.000    0.000     229.0    229.0    1.71   162.4     724.8     200.1     200.1     124.5     124.5      42.3    0.000     0.000     0.000     0.000     0.000    1.71     0.00    0.00      0   -9.90   -9.00        9.4        9.4        9.5        9.5        9.5        9.5        9.5        9.5        9.5        9.5       11.7       11.7        0.0        0.0        0.0        0.0        0.0        0.0        0.0        0.0        0.0        0.0        0.0        0.0      8.3      14.1      19.8      26.7      33.5    391.85
     2     9  2011    64     3     228.2     5.8      7.6    0.0    5.8    0.0      0.0      0.0   -9.90      0.1      0.1    100     14.1     14.1   100     14.2    14.2     100     17.4    1.73     -9      0      0      0      0    95.6    95.6      0     1.03     14.1     14.1     14.1   100    34.3    11.078     4.9    0.547    0.608      99        0.07    0.000    0.000     228.2    228.2    1.73   163.4     732.9     202.3     202.3     124.5     124.5      42.7    0.000     0.000     0.000     0.000     0.000    1.73     0.00    0.00      0   -9.90   -9.00        9.4        9.4        9.5        9.5        9.5        9.5        9.5        9.5        9.5        9.5       11.7       11.7        0.0        0.0        0.0        0.0        0.0        0.0        0.0        0.0        0.0        0.0        0.0        0.0      5.8      13.7      20.8      27.1      33.5    391.85
     3     9  2011    65     3     230.0     6.2     10.8    0.0    6.2    0.0      0.0      0.0   -9.90      0.1      0.1    100     15.1     15.1   100     15.2    15.2     100     15.8    1.75     -9      0      0      0      0    95.6    95.6      0     1.02     15.1     15.1     15.1   100    34.3    11.429     5.9    0.680    0.755      99        0.08    0.000    0.000     230.0    230.0    1.75   167.0     741.1     204.6     204.6     129.5     129.5      43.2    0.000     0.000     0.000     0.000     0.000    1.75     0.00    0.00      0   -9.90   -9.00        9.5        9.5        9.6        9.6        9.6        9.6        9.6        9.6        9.6        9.5       11.7       11.7        0.0        0.0        0.0        0.0        0.0        0.0        0.0        0.0        0.0        0.0        0.0        0.0      6.2      14.7      17.7      25.5      33.4    391.85
     4     9  2011    66     3     227.2     4.6      6.2    0.0    4.6    0.0      0.0      0.0   -9.90      0.1      0.1    100     13.5     13.5   100     13.6    13.6     100     16.7    1.77     -9      0      0      0      0    95.7    95.7      0     1.02     13.5     13.5     13.5   100    34.3    11.780     7.1    0.840    0.933      99        0.10    0.000    0.000     227.2    227.2    1.77   166.0     749.2     206.8     206.8     125.1     125.1      43.7    0.000     0.000     0.000     0.000     0.000    1.77     0.00    0.00      0   -9.90   -9.00        9.3        9.3        9.4        9.4        9.4        9.4        9.4        9.4        9.4        9.4       11.7       11.7        0.0        0.0        0.0        0.0        0.0        0.0        0.0        0.0        0.0        0.0        0.0        0.0      4.6      13.2      19.4      25.7      32.0    391.85
     5     9  2011    67     3     229.2     4.9     11.9    0.0    4.9    0.0      0.0      0.0   -9.90      0.1      0.1    100     14.6     14.6   100     14.7    14.7     100     17.6    1.79     -9      0      0      0      0    95.7    95.7      0     1.02     14.6     14.6     14.6   100    34.3    12.129     8.5    1.031    1.146      99        0.12    0.000    0.000     229.2    229.2    1.79   169.9     757.2     209.0     209.0     130.8     130.8      44.2    0.000     0.000     0.000     0.000     0.000    1.79     0.00    0.00      0   -9.90   -9.00        9.5        9.5        9.5        9.5        9.5        9.5        9.5        9.5        9.5        9.5       11.7       11.7        0.0        0.0        0.0        0.0        0.0        0.0        0.0        0.0        0.0        0.0        0.0        0.0      4.9      14.3      21.2      27.9      34.6    391.85
     6     9  2011    68     3     228.2     3.5      9.7    0.0    3.5    0.0      0.0      0.0   -9.90      0.1      0.1    100     14.1     14.1   100     14.2    14.2     100     16.9    1.81     -9      0      0      0      0    95.8    95.8      0     1.02     14.1     14.1     14.1   100    34.3    12.478    10.0    1.251    1.391      99        0.15    0.000    0.000     228.2    228.2    1.81   171.1     765.3     211.2     211.2     130.5     130.5      44.6    0.000     0.000     0.000     0.000     0.000    1.81     0.00    0.00      0   -9.90   -9.00        9.4        9.4        9.5        9.5        9.5        9.5        9.5        9.5        9.5        9.5       11.6       11.7        0.0        0.0        0.0        0.0        0.0        0.0        0.0        0.0        0.0        0.0        0.0        0.0      3.5      13.9      19.8      26.6      33.3    391.85
     7     9  2011    69     4     227.2     3.4      9.6    0.0    3.4    0.0      0.0      0.0   -9.90      0.1      0.1    100     13.9     13.9   100     14.0    14.0     100     18.2    1.83     -9      0      0      0      0    95.8    95.8      0     1.01     13.9     13.9     13.9   100    34.3    12.826    11.6    1.482    1.647      99        0.17    0.000    0.000     227.2    227.2    1.83   172.9     773.3     213.5     213.5     131.2     131.2      45.1    0.000     0.000     0.000     0.000     0.000    1.83     0.00    0.00      0   -9.90   -9.00        9.4        9.4        9.5        9.5        9.5        9.5        9.5        9.5        9.5        9.5       11.4       11.7        0.0        0.0        0.0        0.0        0.0        0.0        0.0        0.0        0.0        0.0        0.0        0.0      3.4      13.7      22.4      28.5      34.5    391.85
     8     9  2011    70     4     228.2     5.2     10.7    0.0    5.2    0.0      0.0      0.0   -9.90      0.1      0.1    100     14.8     14.8   100     14.9    14.9     100     15.6    1.85     -9      0      0      0      0    95.8    95.8      0     1.01     14.8     14.8     14.8   100    34.3    13.173    13.1    1.723    1.915      99        0.20    0.000    0.000     228.2    228.2    1.85   176.7     781.3     215.7     215.7     136.3     136.3      45.6    0.000     0.000     0.000     0.000     0.000    1.85     0.00    0.00      0   -9.90   -9.00        9.5        9.5        9.6        9.6        9.6        9.6        9.6        9.6        9.6        9.6       11.0       11.7        0.0        0.0        0.0        0.0        0.0        0.0        0.0        0.0        0.0        0.0        0.0        0.0      5.2      14.7      17.2      25.3      33.3    391.85
     9     9  2011    71     4     227.2     4.3      9.4    0.0    4.3    0.0      0.0      0.0   -9.90      0.1      0.1    100     14.7     14.7   100     14.8    14.8     100     16.5    1.87     -9      0      0      0      0    95.9    95.9      0     1.01     14.7     14.7     14.7   100    34.3    13.519    14.6    1.975    2.194      99        0.22    0.000    0.000     227.2    227.2    1.87   178.4     789.2     217.9     217.9     137.5     137.5      46.1    0.000     0.000     0.000     0.000     0.000    1.87     0.00    0.00      0   -9.90   -9.00        9.5        9.5        9.5        9.5        9.5        9.5        9.5        9.5        9.5        9.5       10.6       11.7        0.0        0.0        0.0        0.0        0.0        0.0        0.0        0.0        0.0        0.0        0.0        0.0      4.3      14.6      18.9      26.5      34.1    391.85
    10     9  2011    72     4     227.3     1.9     13.5    0.0    1.9    0.0      0.0      0.0   -9.90      0.1      0.1    100     15.2     15.2   100     15.3    15.3     100     16.5    1.89     -9      0      0      0      0    95.9    95.9      0     1.01     15.2     15.2     15.2   100    34.3    13.864    16.1    2.237    2.485      99        0.25    0.000    0.000     227.3    227.3    1.89   181.1     797.2     220.0     220.0     140.9     140.9      46.5    0.000     0.000     0.000     0.000     0.000    1.89     0.00    0.00      0   -9.90   -9.00        9.6        9.6        9.6        9.6        9.6        9.6        9.6        9.6        9.6        9.6       10.3       11.7        0.0        0.0        0.0        0.0        0.0        0.0        0.0        0.0        0.0        0.0        0.0        0.0      1.9      15.1      18.9      26.9      34.9    391.85
    11     9  2011    73     4     224.1     2.6      8.3    0.0    2.6    0.0      0.0      0.0   -9.90      0.1      0.1    100     14.0     14.0   100     14.0    14.0     100     16.6    1.90     -9      0      0      0      0    95.9    95.9      0     1.00     14.0     14.0     14.0   100    34.3    14.208    17.7    2.509    2.788      99        0.27    0.000    0.000     224.1    224.1    1.90   180.3     805.1     222.2     222.2     137.5     137.5      47.0    0.000     0.000     0.000     0.000     0.000    1.90     0.00    0.00      0   -9.90   -9.00        9.4        9.4        9.5        9.5        9.5        9.5        9.5        9.5        9.5        9.5        9.9       11.7        0.0        0.0        0.0        0.0        0.0        0.0        0.0        0.0        0.0        0.0        0.0        0.0      2.6      13.9      19.2      26.2      33.2    391.85
    12     9  2011    74     4     224.7     4.0     11.2    0.0    4.0    0.0      0.0      0.0   -9.90      0.1      0.1    100     14.5     14.5   100     14.6    14.6     100     16.2    1.92     -9      0      0      0      0    95.9    95.9      0     1.00     14.5     14.5     14.5   100    34.3    14.551    19.2    2.792    3.102      99        0.30    0.000    0.000     224.7    224.7    1.92   183.0     813.0     224.4     224.4     141.1     141.1      47.5    0.000     0.000     0.000     0.000     0.000    1.92     0.00    0.00      0   -9.90   -9.00        9.5        9.5        9.5        9.5        9.5        9.5        9.5        9.5        9.5        9.5        9.7       11.7        0.0        0.0        0.0        0.0        0.0        0.0        0.0        0.0        0.0        0.0        0.0        0.0      4.0      14.5      18.5      26.1      33.8    391.85
    13     9  2011    75     4     220.5     4.7      3.8    0.0    4.7    0.0      0.0      0.0   -9.90      0.1      0.1    100     12.6     12.6   100     12.6    12.6     100     17.1    1.94     -9      0      0      0      0    95.9    95.9      0     1.00     12.6     12.6     12.6   100    34.3    14.894    20.7    3.084    3.427      99        0.33    0.000    0.000     220.5    220.5    1.94   180.9     820.8     226.6     226.6     134.6     134.6      47.9    0.000     0.000     0.000     0.000     0.000    1.94     0.00    0.00      0   -9.90   -9.00        9.3        9.3        9.3        9.3        9.3        9.3        9.3        9.3        9.3        9.3        9.5       11.7        0.0        0.0        0.0        0.0        0.0        0.0        0.0        0.0        0.0        0.0        0.0        0.0      4.7      12.6      20.2      26.0      31.9    391.85
    14     9  2011    76     4     223.9    14.5      3.3    0.0   14.4    0.1      0.0      0.0   -9.90      0.1      0.1    100     14.1     14.1   100     14.3    14.3     100     17.1    1.96     -9      0     -9      0      0    95.3    95.3      0     0.98     14.1     14.1     14.1   100    34.3    15.231    22.2    3.387    3.763      99        0.35    0.000    0.000     223.9    223.9    1.96   186.0     828.6     228.7     228.7     143.3     143.3      48.4    0.000     0.000     0.000     0.000     0.000    1.96     0.00    0.00      0   -9.90   -9.00        9.5        9.5        9.5        9.5        9.5        9.5        9.5        9.5        9.5        9.5        9.5       11.7        0.0        0.0        0.0        0.0        0.0        0.0        0.0        0.0        0.0        0.0        0.0        0.0     14.5      14.3      20.1      27.3      34.5    391.85
    15     9  2011    77     4     224.2     3.9     10.7    0.0    3.9    0.0      0.0      0.0   -9.90      0.2      0.2    100     14.1     14.1   100     14.3    14.3     100     17.6    1.98     -9      0     -9      0      0    94.6    94.6      0     0.97     14.1     14.1     14.1   100    34.3    15.564    23.8    3.698    4.109      99        0.38    0.000    0.000     224.2    224.2    1.98   188.1     836.4     230.9     230.9     145.3     145.3      48.8    0.000     0.000     0.000     0.000     0.000    1.98     0.00    0.00      0   -9.90   -9.00        9.5        9.5        9.5        9.5        9.5        9.5        9.5        9.5        9.5        9.5        9.5       11.7        0.0        0.0        0.0        0.0        0.0        0.0        0.0        0.0        0.0        0.0        0.0        0.0      3.9      14.5      21.2      28.3      35.4    391.85
    16     9  2011    78     4     223.8    10.7      2.8    0.0   10.7    0.0      0.0      0.0   -9.90      0.3      0.3    100     13.6     13.6   100     13.9    13.9     100     17.3    2.00     -9      0     -9      0      0    93.9    93.9      0     0.96     13.6     13.6     13.6   100    34.3    15.892    25.3    4.019    4.465      99        0.41    0.000    0.000     223.8    223.8    2.00   189.4     844.2     233.0     233.0     145.7     145.7      49.3    0.000     0.000     0.000     0.000     0.000    2.00     0.00    0.00      0   -9.90   -9.00        9.5        9.5        9.5        9.5        9.5        9.5        9.5        9.5        9.5        9.5        9.5       11.7        0.0        0.0        0.0        0.0        0.0        0.0        0.0        0.0        0.0        0.0        0.0        0.0     10.7      14.3      20.7      27.7      34.8    391.85
    17     9  2011    79     4     223.4    12.6      0.0    0.0   12.5    0.1      0.0      0.0   -9.90      0.3      0.3    100     12.6     12.6   100     12.9    12.9     100     17.1    2.01     -9      0     -9      0      0    93.0    93.0      0     0.94     12.6     12.6     12.6   100    34.3    16.214    26.8    4.347    4.830      99        0.43    0.000    0.000     223.4    223.4    2.01   190.7     852.0     235.2     235.2     143.2     143.2      49.8    0.000     0.000     0.000     0.000     0.000    2.01     0.00    0.00      0   -9.90   -9.00       19.0        6.6        6.7        8.6        9.5        9.5        9.5        9.5        9.5        9.5        9.5       11.7        0.0        0.0        0.0        0.0        0.0        0.0        0.0        0.0        0.0        0.0        0.0        0.0     12.6      13.4      20.2      26.8      33.3    391.85
    18     9  2011    80     4     221.5     1.9      8.9    0.0    1.9    0.0      0.0      0.0   -9.90      0.4      0.4    100     12.2     12.2   100     12.6    12.6     100     17.4    2.03     -9      0     -9      0      0    92.0    92.0      0     0.92     12.2     12.2     12.2   100    34.3    16.529    28.3    4.684    5.205      99        0.46    0.000    0.000     221.5    221.5    2.03   190.7     859.7     237.3     237.3     144.0     144.0      50.2    0.000     0.000     0.000     0.000     0.000    2.03     0.00    0.00      0   -9.90   -9.00        9.4        9.4        9.4        9.4        9.4        9.4        9.4        9.4        9.4        9.4        9.4       11.7        0.0        0.0        0.0        0.0        0.0        0.0        0.0        0.0        0.0        0.0        0.0        0.0      1.9      13.3      20.9      27.2      33.5    391.85
    19     9  2011    81     4     223.4    10.1      5.0    0.0   10.1    0.0      0.0      0.0   -9.90      0.6      0.6    100     12.7     12.7   100     13.3    13.3     100     17.1    2.05     -9      0     -9      0      0    90.9    90.9      0     0.90     12.7     12.7     12.7   100    34.3    16.837    29.9    5.029    5.587      99        0.49    0.000    0.000     223.4    223.4    2.05   194.2     867.4     239.4     239.4     149.0     149.0      50.7    0.000     0.000     0.000     0.000     0.000    2.05     0.00    0.00      0   -9.90   -9.00        9.4        9.4        9.5        9.5        9.5        9.5        9.5        9.5        9.5        9.5        9.5       11.7        0.0        0.0        0.0        0.0        0.0        0.0        0.0        0.0        0.0        0.0        0.0        0.0     10.1      14.1      20.1      27.3      34.4    391.85
    20     9  2011    82     4     222.7     3.9      8.4    0.0    3.9    0.0      0.0      0.0   -9.90      0.7      0.7    100     12.3     12.3   100     12.9    12.9     100     16.6    2.07     -9      0     -9      0      0    89.6    89.6      0     0.88     12.3     12.3     12.3   100    34.3    17.138    31.4    5.380    5.978      99        0.52    0.000    0.000     222.7    222.7    2.07   196.1     875.1     241.5     241.5     149.9     149.9      51.1    0.000     0.000     0.000     0.000     0.000    2.07     0.00    0.00      0   -9.90   -9.00        9.4        9.4        9.5        9.5        9.5        9.5        9.5        9.5        9.5        9.5        9.5       11.5        0.0        0.0        0.0        0.0        0.0        0.0        0.0        0.0        0.0        0.0        0.0        0.0      3.9      14.0      19.3      26.6      33.9    391.85
    21     9  2011    83     4     230.7    20.6      0.0    0.0   19.9    0.7      0.0      0.0   -9.90      0.7      0.7    100     11.2     11.2   100     11.9    11.9     100     16.8    2.09     -9      0     -9      0      0    88.2    88.2      0     0.85     11.2     11.2     11.2   100    34.3    17.430    32.9    5.738    6.375      99        0.54    0.000    0.000     230.7    230.7    2.09   206.1     882.8     243.7     243.7     147.2     147.2      51.6    0.000     0.000     0.000     0.000     0.000    2.09     0.00    0.00      0   -9.90   -9.00       26.1        6.6        6.7        9.5        9.5        9.5        9.5        9.5        9.5        9.5        9.5       11.5        0.0        0.0        0.0        0.0        0.0        0.0        0.0        0.0        0.0        0.0        0.0        0.0     20.6      13.1      19.7      26.2      32.7    391.85
    22     9  2011    84     4     223.9     4.8      0.0    0.0    4.8    0.0      0.0      0.0   -9.90      0.9      0.9    100     10.8     10.8   100     11.6    11.6     100     17.4    2.10     -9      0     -9      0      0    86.6    86.6      0     0.83     10.8     10.8     10.8   100    34.3    17.713    34.4    6.101    6.779     100        0.57    0.000    0.000     223.9    223.9    2.10   201.4     890.4     245.8     245.8     148.1     148.1      52.0    0.000     0.000     0.000     0.000     0.000    2.10     0.00    0.00      0   -9.90   -9.00       13.6        9.3        7.7        9.5        9.5        9.5        9.5        9.5        9.5        9.5        9.5       11.5        0.0        0.0        0.0        0.0        0.0        0.0        0.0        0.0        0.0        0.0        0.0        0.0      4.8      13.0      20.9      27.1      33.3    391.85
    23     9  2011    85     4     220.0     3.0      4.9    0.0    3.0    0.0      0.0      0.0   -9.90      1.0      1.0    100     10.7     10.7   100     11.7    11.7     100     17.4    2.12     -9      0     -9      0      0    84.8    84.8      0     0.80     10.7     10.7     10.7   100    34.3    17.986    36.0    6.469    7.188     100        0.60    0.000    0.000     220.0    220.0    2.12   200.7     898.0     247.9     247.9     151.4     151.4      52.5    0.000     0.000     0.000     0.000     0.000    2.12     0.00    0.00      0   -9.90   -9.00        9.4        9.4        9.4        9.4        9.4        9.4        9.4        9.4        9.4        9.4        9.4       10.9        0.0        0.0        0.0        0.0        0.0        0.0        0.0        0.0        0.0        0.0        0.0        0.0      3.0      13.5      20.8      27.4      34.0    391.85
    24     9  2011    86     4     218.1     3.2      6.1    0.0    3.2    0.0      0.0      0.0   -9.90      1.2      1.2    100     10.1     10.1   100     11.2    11.2     100     16.3    2.14     -9      0     -9      0      0    82.8    82.8      0     0.76     10.1     10.1     10.1   100    34.3    18.248    37.5    6.842    7.602     100        0.63    0.000    0.000     218.1    218.1    2.14   201.6     905.6     250.0     250.0     151.5     151.5      52.9    0.000     0.000     0.000     0.000     0.000    2.14     0.00    0.00      0   -9.90   -9.00        9.4        9.4        9.4        9.4        9.4        9.4        9.4        9.4        9.4        9.4        9.4       10.4        0.0        0.0        0.0        0.0        0.0        0.0        0.0        0.0        0.0        0.0        0.0        0.0      3.2      13.2      18.6      25.5      32.5    391.85
    25     9  2011    87     4     218.7    11.1      1.1    0.0   11.1    0.0      0.0      0.0   -9.90      1.4      1.4    100     10.1     10.1   100     11.5    11.5     100     16.6    2.16     -9      0     -9      0      0    80.5    80.5      0     0.73     10.1     10.1     10.1   100    34.3    18.497    39.0    7.218    8.019     100        0.66    0.000    0.000     218.7    218.7    2.16   204.6     913.2     252.1     252.1     156.1     156.1      53.4    0.000     0.000     0.000     0.000     0.000    2.16     0.00    0.00      0   -9.90   -9.00        9.4        9.4        9.5        9.5        9.5        9.5        9.5        9.5        9.5        9.5        9.5       10.0        0.0        0.0        0.0        0.0        0.0        0.0        0.0        0.0        0.0        0.0        0.0        0.0     11.1      13.9      19.3      26.7      34.0    391.85
[...]
    10    12  2015    -9     0     225.7     3.4      0.0    0.0    3.4    0.0      0.0      0.0   -9.90     12.6      8.0     63      0.0      0.0   100     12.6     8.0      63     18.0    2.28     -9     -9     -9      0     -9     0.0     0.0      0    -9.00      0.0      0.0      0.0   100    34.5    19.707    48.2    9.494   10.549      98        0.83    0.000    0.000     225.7    225.7    2.28   224.0     965.7     266.5     266.5     153.0     159.2      56.5    0.000     0.000     0.000     0.000     0.000    2.28     0.00    0.00      0   -9.90   -9.00        5.5       11.7       11.7       11.7       11.1        9.5        9.5        9.5        9.5        9.5        9.5        9.4        0.0        0.0        0.0        0.0        0.0        0.0        0.0        0.0        0.0        0.0        0.0        0.0      3.4      11.5      22.0      29.0      36.0    401.01
    11    12  2015    -9     0     222.6     1.9      0.0    0.0    1.9    0.0      0.0      0.0   -9.90     13.5      5.0     37      0.0      0.0   100     13.5     5.0      37     16.5    2.28     -9     -9     -9      0     -9     0.0     0.0      0    -9.00      0.0      0.0      0.0   100    34.5    19.707    48.2    9.494   10.549      98        0.83    0.000    0.000     222.6    222.6    2.28   220.9     965.7     266.5     266.5     156.7     159.2      56.5    0.000     0.000     0.000     0.000     0.000    2.28     0.00    0.00      0   -9.90   -9.00        2.4       11.7       11.7       11.7       11.1        9.5        9.5        9.5        9.5        9.5        9.5        9.4        0.0        0.0        0.0        0.0        0.0        0.0        0.0        0.0        0.0        0.0        0.0        0.0      1.9      12.2      19.0      27.5      36.0    401.01
    12    12  2015    -9     0     221.4     2.4      0.0    0.0    2.4    0.0      0.0      0.0   -9.90     12.3      3.6     29      0.0      0.0   100     12.3     3.6      29     18.2    2.28     -9     -9     -9      0     -9     0.0     0.0      0    -9.00      0.0      0.0      0.0   100    34.5    19.707    48.2    9.494   10.549      98        0.83    0.000    0.000     221.4    221.4    2.28   219.7     965.7     266.5     266.5     151.7     159.2      56.5    0.000     0.000     0.000     0.000     0.000    2.28     0.00    0.00      0   -9.90   -9.00        1.2       11.7       11.7       11.7       11.1        9.5        9.5        9.5        9.5        9.5        9.5        9.4        0.0        0.0        0.0        0.0        0.0        0.0        0.0        0.0        0.0        0.0        0.0        0.0      2.4      11.2      22.5      29.1      35.8    401.01
    13    12  2015    -9     0     223.0     7.8      0.0    0.0    7.8    0.0      0.0      0.0   -9.90     12.3      6.2     50      0.0      0.0   100     12.3     6.2      50     16.6    2.28     -9     -9     -9      0     -9     0.0     0.0      0    -9.00      0.0      0.0      0.0   100    34.5    19.707    48.2    9.494   10.549      98        0.83    0.000    0.000     223.0    223.0    2.28   221.3     965.7     266.5     266.5     151.7     159.2      56.5    0.000     0.000     0.000     0.000     0.000    2.28     0.00    0.00      0   -9.90   -9.00        2.8       11.7       11.7       11.7       11.1        9.5        9.5        9.5        9.5        9.5        9.5        9.4        0.0        0.0        0.0        0.0        0.0        0.0        0.0        0.0        0.0        0.0        0.0        0.0      7.8      11.2      19.1      26.6      34.0    401.01
    14    12  2015    -9     0     223.6     7.3      0.0    0.0    7.3    0.0      0.0      0.0   -9.90     11.3      6.7     59      0.0      0.0   100     11.3     6.7      59     17.6    2.28     -9     -9     -9      0     -9     0.0     0.0      0    -9.00      0.0      0.0      0.0   100    34.5    19.707    48.2    9.494   10.549      98        0.83    0.000    0.000     223.6    223.6    2.28   222.0     965.7     266.5     266.5     147.4     159.2      56.5    0.000     0.000     0.000     0.000     0.000    2.28     0.00    0.00      0   -9.90   -9.00        3.4       11.7       11.7       11.7       11.1        9.5        9.5        9.5        9.5        9.5        9.5        9.4        0.0        0.0        0.0        0.0        0.0        0.0        0.0        0.0        0.0        0.0        0.0        0.0      7.3      10.3      21.3      27.4      33.5    401.01
    15    12  2015    -9     0     223.6     6.8      0.0    0.0    6.8    0.0      0.0      0.0   -9.90     11.6      6.8     59      0.0      0.0   100     11.6     6.8      59     16.9    2.28     -9     -9     -9      0     -9     0.0     0.0      0    -9.00      0.0      0.0      0.0   100    34.5    19.707    48.2    9.494   10.549      98        0.83    0.000    0.000     223.6    223.6    2.28   222.0     965.7     266.5     266.5     148.5     159.2      56.5    0.000     0.000     0.000     0.000     0.000    2.28     0.00    0.00      0   -9.90   -9.00        3.4       11.7       11.7       11.7       11.1        9.5        9.5        9.5        9.5        9.5        9.5        9.4        0.0        0.0        0.0        0.0        0.0        0.0        0.0        0.0        0.0        0.0        0.0        0.0      6.8      10.5      19.9      26.5      33.1    401.01
    16    12  2015    -9     0     222.5     4.2      0.0    0.0    4.2    0.0      0.0      0.0   -9.90     10.7      5.3     49      0.0      0.0   100     10.7     5.3      49     17.0    2.28     -9     -9     -9      0     -9     0.0     0.0      0    -9.00      0.0      0.0      0.0   100    34.5    19.707    48.2    9.494   10.549      98        0.83    0.000    0.000     222.5    222.5    2.28   220.9     965.7     266.5     266.5     144.4     159.2      56.5    0.000     0.000     0.000     0.000     0.000    2.28     0.00    0.00      0   -9.90   -9.00        2.3       11.7       11.7       11.7       11.1        9.5        9.5        9.5        9.5        9.5        9.5        9.4        0.0        0.0        0.0        0.0        0.0        0.0        0.0        0.0        0.0        0.0        0.0        0.0      4.2       9.7      20.0      25.8      31.6    401.01
    17    12  2015    -9     0     222.7     6.2      0.0    0.0    6.2    0.0      0.0      0.0   -9.90     12.8      6.0     47      0.0      0.0   100     12.8     6.0      47     16.1    2.28     -9     -9     -9      0     -9     0.0     0.0      0    -9.00      0.0      0.0      0.0   100    34.5    19.707    48.2    9.494   10.549      98        0.83    0.000    0.000     222.7    222.7    2.28   221.0     965.7     266.5     266.5     153.9     159.2      56.5    0.000     0.000     0.000     0.000     0.000    2.28     0.00    0.00      0   -9.90   -9.00        2.5       11.7       11.7       11.7       11.1        9.5        9.5        9.5        9.5        9.5        9.5        9.4        0.0        0.0        0.0        0.0        0.0        0.0        0.0        0.0        0.0        0.0        0.0        0.0      6.2      11.6      18.1      26.3      34.4    401.01
    18    12  2015    -9     0     222.9     5.9      0.0    0.0    5.9    0.0      0.0      0.0   -9.90     11.1      5.7     51      0.0      0.0   100     11.1     5.7      51     17.6    2.28     -9     -9     -9      0     -9     0.0     0.0      0    -9.00      0.0      0.0      0.0   100    34.5    19.707    48.2    9.494   10.549      98        0.83    0.000    0.000     222.9    222.9    2.28   221.3     965.7     266.5     266.5     146.4     159.2      56.5    0.000     0.000     0.000     0.000     0.000    2.28     0.00    0.00      0   -9.90   -9.00        2.7       11.7       11.7       11.7       11.1        9.5        9.5        9.5        9.5        9.5        9.5        9.4        0.0        0.0        0.0        0.0        0.0        0.0        0.0        0.0        0.0        0.0        0.0        0.0      5.9      10.1      21.2      27.1      33.0    401.01
    19    12  2015    -9     0     222.8     6.2      0.0    0.0    6.2    0.0      0.0      0.0   -9.90     13.0      6.3     48      0.0      0.0   100     13.0     6.3      48     17.0    2.28     -9     -9     -9      0     -9     0.0     0.0      0    -9.00      0.0      0.0      0.0   100    34.5    19.707    48.2    9.494   10.549      98        0.83    0.000    0.000     222.8    222.8    2.28   221.2     965.7     266.5     266.5     154.9     159.2      56.5    0.000     0.000     0.000     0.000     0.000    2.28     0.00    0.00      0   -9.90   -9.00        2.6       11.7       11.7       11.7       11.1        9.5        9.5        9.5        9.5        9.5        9.5        9.4        0.0        0.0        0.0        0.0        0.0        0.0        0.0        0.0        0.0        0.0        0.0        0.0      6.2      11.9      19.9      27.9      35.8    401.01
    20    12  2015    -9     0     221.4     0.2      0.0    0.0    0.2    0.0      0.0      0.0   -9.90     11.2      1.6     14      0.0      0.0   100     11.2     1.6      14     17.7    2.28     -9     -9     -9      0     -9     0.0     0.0      0    -9.00      0.0      0.0      0.0   100    34.5    19.707    48.2    9.494   10.549      98        0.83    0.000    0.000     221.4    221.4    2.28   219.8     965.7     266.5     266.5     146.9     159.2      56.5    0.000     0.000     0.000     0.000     0.000    2.28     0.00    0.00      0   -9.90   -9.00        1.2       11.7       11.7       11.7       11.1        9.5        9.5        9.5        9.5        9.5        9.5        9.4        0.0        0.0        0.0        0.0        0.0        0.0        0.0        0.0        0.0        0.0        0.0        0.0      0.2      10.2      21.4      27.4      33.3    401.01
    21    12  2015    -9     0     227.3    14.3      0.0    0.0   14.3    0.0      0.0      0.0   -9.90     12.2      8.5     70      0.0      0.0   100     12.2     8.5      70     16.8    2.28     -9     -9     -9      0     -9     0.0     0.0      0    -9.00      0.0      0.0      0.0   100    34.5    19.707    48.2    9.494   10.549      98        0.83    0.000    0.000     227.3    227.3    2.28   225.6     965.7     266.5     266.5     151.1     159.2      56.5    0.000     0.000     0.000     0.000     0.000    2.28     0.00    0.00      0   -9.90   -9.00        7.2       11.7       11.7       11.7       11.1        9.5        9.5        9.5        9.5        9.5        9.5        9.4        0.0        0.0        0.0        0.0        0.0        0.0        0.0        0.0        0.0        0.0        0.0        0.0     14.3      11.1      19.7      26.9      34.1    401.01
    22    12  2015    -9     0     223.7     4.3      0.0    0.0    4.3    0.0      0.0      0.0   -9.90     12.5      7.8     63      0.0      0.0   100     12.5     7.8      63     16.8    2.28     -9     -9     -9      0     -9     0.0     0.0      0    -9.00      0.0      0.0      0.0   100    34.5    19.707    48.2    9.494   10.549      98        0.83    0.000    0.000     223.7    223.7    2.28   222.1     965.7     266.5     266.5     152.4     159.2      56.5    0.000     0.000     0.000     0.000     0.000    2.28     0.00    0.00      0   -9.90   -9.00        3.5       11.7       11.7       11.7       11.1        9.5        9.5        9.5        9.5        9.5        9.5        9.4        0.0        0.0        0.0        0.0        0.0        0.0        0.0        0.0        0.0        0.0        0.0        0.0      4.3      11.3      19.5      27.0      34.5    401.01
    23    12  2015    -9     0     230.4    15.4      0.0    0.0   15.4    0.0      0.0      0.0   -9.90     12.0      8.7     73      0.0      0.0   100     12.0     8.7      73     16.9    2.28     -9     -9     -9      0     -9     0.0     0.0      0    -9.00      0.0      0.0      0.0   100    34.5    19.707    48.2    9.494   10.549      98        0.83    0.000    0.000     230.4    230.4    2.28   228.8     965.7     266.5     266.5     150.1     159.2      56.5    0.000     0.000     0.000     0.000     0.000    2.28     0.00    0.00      0   -9.90   -9.00       10.3       11.7       11.7       11.7       11.1        9.5        9.5        9.5        9.5        9.5        9.5        9.4        0.0        0.0        0.0        0.0        0.0        0.0        0.0        0.0        0.0        0.0        0.0        0.0     15.4      10.9      19.8      26.8      33.7    401.01
    24    12  2015    -9     0     225.1     0.7      0.0    0.0    0.7    0.0      0.0      0.0   -9.90     12.2      6.0     49      0.0      0.0   100     12.2     6.0      49     17.3    2.28     -9     -9     -9      0     -9     0.0     0.0      0    -9.00      0.0      0.0      0.0   100    34.5    19.707    48.2    9.494   10.549      98        0.83    0.000    0.000     225.1    225.1    2.28   223.5     965.7     266.5     266.5     151.1     159.2      56.5    0.000     0.000     0.000     0.000     0.000    2.28     0.00    0.00      0   -9.90   -9.00        5.0       11.7       11.7       11.7       11.1        9.5        9.5        9.5        9.5        9.5        9.5        9.4        0.0        0.0        0.0        0.0        0.0        0.0        0.0        0.0        0.0        0.0        0.0        0.0      0.7      11.1      20.5      27.5      34.5    401.01
    25    12  2015    -9     0     223.2     4.8      0.0    0.0    4.8    0.0      0.0      0.0   -9.90     12.5      6.7     54      0.0      0.0   100     12.5     6.7      54     16.8    2.28     -9     -9     -9      0     -9     0.0     0.0      0    -9.00      0.0      0.0      0.0   100    34.5    19.707    48.2    9.494   10.549      98        0.83    0.000    0.000     223.2    223.2    2.28   221.6     965.7     266.5     266.5     152.3     159.2      56.5    0.000     0.000     0.000     0.000     0.000    2.28     0.00    0.00      0   -9.90   -9.00        3.1       11.7       11.7       11.7       11.1        9.5        9.5        9.5        9.5        9.5        9.5        9.4        0.0        0.0        0.0        0.0        0.0        0.0        0.0        0.0        0.0        0.0        0.0        0.0      4.8      11.3      19.5      27.0      34.4    401.01
    26    12  2015    -9     0     221.9     3.1      0.0    0.0    3.1    0.0      0.0      0.0   -9.90     12.0      4.5     37      0.0      0.0   100     12.0     4.5      37     16.9    2.28     -9     -9     -9      0     -9     0.0     0.0      0    -9.00      0.0      0.0      0.0   100    34.5    19.707    48.2    9.494   10.549      98        0.83    0.000    0.000     221.9    221.9    2.28   220.2     965.7     266.5     266.5     150.5     159.2      56.5    0.000     0.000     0.000     0.000     0.000    2.28     0.00    0.00      0   -9.90   -9.00        1.7       11.7       11.7       11.7       11.1        9.5        9.5        9.5        9.5        9.5        9.5        9.4        0.0        0.0        0.0        0.0        0.0        0.0        0.0        0.0        0.0        0.0        0.0        0.0      3.1      10.9      19.8      26.8      33.8    401.01
    27    12  2015    -9     0     222.3     5.6      0.0    0.0    5.6    0.0      0.0      0.0   -9.90     11.2      5.2     47      0.0      0.0   100     11.2     5.2      47     17.1    2.28     -9     -9     -9      0     -9     0.0     0.0      0    -9.00      0.0      0.0      0.0   100    34.5    19.707    48.2    9.494   10.549      98        0.83    0.000    0.000     222.3    222.3    2.28   220.6     965.7     266.5     266.5     146.8     159.2      56.5    0.000     0.000     0.000     0.000     0.000    2.28     0.00    0.00      0   -9.90   -9.00        2.1       11.7       11.7       11.7       11.1        9.5        9.5        9.5        9.5        9.5        9.5        9.4        0.0        0.0        0.0        0.0        0.0        0.0        0.0        0.0        0.0        0.0        0.0        0.0      5.6      10.2      20.3      26.4      32.6    401.01
    28    12  2015    -9     0     223.5     8.4      0.0    0.0    8.4    0.0      0.0      0.0   -9.90     12.3      7.2     58      0.0      0.0   100     12.3     7.2      58     16.5    2.28     -9     -9     -9      0     -9     0.0     0.0      0    -9.00      0.0      0.0      0.0   100    34.5    19.707    48.2    9.494   10.549      98        0.83    0.000    0.000     223.5    223.5    2.28   221.9     965.7     266.5     266.5     151.5     159.2      56.5    0.000     0.000     0.000     0.000     0.000    2.28     0.00    0.00      0   -9.90   -9.00        3.4       11.7       11.7       11.7       11.1        9.5        9.5        9.5        9.5        9.5        9.5        9.4        0.0        0.0        0.0        0.0        0.0        0.0        0.0        0.0        0.0        0.0        0.0        0.0      8.4      11.2      19.0      26.4      33.8    401.01
    29    12  2015    -9     0     224.0     7.6      0.0    0.0    7.6    0.0      0.0      0.0   -9.90     11.0      7.2     65      0.0      0.0   100     11.0     7.2      65     17.2    2.28     -9     -9     -9      0     -9     0.0     0.0      0    -9.00      0.0      0.0      0.0   100    34.5    19.707    48.2    9.494   10.549      98        0.83    0.000    0.000     224.0    224.0    2.28   222.3     965.7     266.5     266.5     145.8     159.2      56.5    0.000     0.000     0.000     0.000     0.000    2.28     0.00    0.00      0   -9.90   -9.00        3.8       11.7       11.7       11.7       11.1        9.5        9.5        9.5        9.5        9.5        9.5        9.4        0.0        0.0        0.0        0.0        0.0        0.0        0.0        0.0        0.0        0.0        0.0        0.0      7.6      10.0      20.3      26.3      32.2    401.01
    30    12  2015    -9     0     223.0     4.9      0.0    0.0    4.9    0.0      0.0      0.0   -9.90     11.2      5.8     52      0.0      0.0   100     11.2     5.8      52     16.7    2.28     -9     -9     -9      0     -9     0.0     0.0      0    -9.00      0.0      0.0      0.0   100    34.5    19.707    48.2    9.494   10.549      98        0.83    0.000    0.000     223.0    223.0    2.28   221.4     965.7     266.5     266.5     146.7     159.2      56.5    0.000     0.000     0.000     0.000     0.000    2.28     0.00    0.00      0   -9.90   -9.00        2.9       11.7       11.7       11.7       11.1        9.5        9.5        9.5        9.5        9.5        9.5        9.4        0.0        0.0        0.0        0.0        0.0        0.0        0.0        0.0        0.0        0.0        0.0        0.0      4.9      10.2      19.5      25.8      32.0    401.01
    31    12  2015    -9     0     221.6     2.0      0.0    0.0    2.0    0.0      0.0      0.0   -9.90     12.9      3.5     27      0.0      0.0   100     12.9     3.5      27     16.2    2.28     -9     -9     -9      0     -9     0.0     0.0      0    -9.00      0.0      0.0      0.0   100    34.5    19.707    48.2    9.494   10.549      98        0.83    0.000    0.000     221.6    221.6    2.28   219.9     965.7     266.5     266.5     154.4     159.2      56.5    0.000     0.000     0.000     0.000     0.000    2.28     0.00    0.00      0   -9.90   -9.00        1.3       11.7       11.7       11.7       11.1        9.5        9.5        9.5        9.5        9.5        9.5        9.4        0.0        0.0        0.0        0.0        0.0        0.0        0.0        0.0        0.0        0.0        0.0        0.0      2.0      11.8      18.4      26.5      34.5    401.01
