AquaCrop 7.1 (August 2023) - Output created on (date) : 16-01-2026   at (time) : 12:17:10

    RunNr     Day1   Month1    Year1     Rain      ETo       GD     CO2      Irri   Infilt   Runoff    Drain   Upflow        E     E/Ex       Tr      TrW   Tr/Trx    SaltIn   SaltOut    SaltUp  SaltProf     Cycle   SaltStr  FertStr  WeedStr  TempStr   ExpStr   StoStr  BioMass  Brelative   HI    Y(dry)  Y(fresh)    WPet      Bin     Bout     DayN   MonthN    YearN
                                           mm       mm  degC.day    ppm        mm       mm       mm       mm       mm       mm        %       mm       mm        %    ton/ha    ton/ha    ton/ha    ton/ha      days       %        %        %        %        %        %    ton/ha        %       %    ton/ha   ton/ha    kg/m3   ton/ha   ton/ha
   Tot(1)        1        7     2011   1187.5   2407.6   3122.8   391.85    528.5   1182.1      5.4      0.0      0.0    934.1       55    824.8    824.8      100     0.000     0.000     0.000     0.000       89        0       30        0        0        0        0    19.889      100     48.2    9.581   10.646     0.82    0.000    0.000       31       12     2011  cluster_206.PRM
   Tot(2)        1        7     2012   1176.6   2397.1   3139.7   394.06    548.8   1171.6      5.0      0.0      0.0    918.9       54    819.2    819.2      100     0.000     0.000     0.000     0.000       89        0       30        0        0        1        0    19.895       99     48.1    9.579   10.643     0.83    0.000    0.000       31       12     2012  cluster_206.PRM
   Tot(3)        1        7     2013   1102.6   2409.3   3122.8   396.74    499.5   1098.1      4.5      3.3      0.0    831.5       49    816.3    816.3      100     0.000     0.000     0.000     0.000       89        0       30        0        0        1        0    19.690       98     48.2    9.486   10.540     0.85    0.000    0.000       31       12     2013  cluster_206.PRM
   Tot(4)        1        7     2014   1068.9   2410.8   3119.3   398.81    538.6   1066.2      2.7      0.0      0.0    838.8       49    823.1    823.1      100     0.000     0.000     0.000     0.000       89        0       30        0        0        0        0    19.973      100     48.2    9.622   10.692     0.83    0.000    0.000       31       12     2014  cluster_206.PRM
   Tot(5)        1        7     2015   1138.7   2416.8   3122.8   401.01    524.8   1134.9      3.8      0.0      0.0    887.8       52    818.9    818.9      100     0.000     0.000     0.000     0.000       89        0       30        0        0        1        0    19.707       98     48.2    9.494   10.549     0.83    0.000    0.000       31       12     2015  cluster_206.PRM
