AquaCrop 7.1 (August 2023) - Output created on (date) : 16-01-2026   at (time) : 12:17:23

    RunNr     Day1   Month1    Year1     Rain      ETo       GD     CO2      Irri   Infilt   Runoff    Drain   Upflow        E     E/Ex       Tr      TrW   Tr/Trx    SaltIn   SaltOut    SaltUp  SaltProf     Cycle   SaltStr  FertStr  WeedStr  TempStr   ExpStr   StoStr  BioMass  Brelative   HI    Y(dry)  Y(fresh)    WPet      Bin     Bout     DayN   MonthN    YearN
                                           mm       mm  degC.day    ppm        mm       mm       mm       mm       mm       mm        %       mm       mm        %    ton/ha    ton/ha    ton/ha    ton/ha      days       %        %        %        %        %        %    ton/ha        %       %    ton/ha   ton/ha    kg/m3   ton/ha   ton/ha
   Tot(1)        1        7     2011   1087.6   2419.8   3131.9   391.85    545.6   1081.6      6.0      4.0      0.0    871.0       50    813.5    813.5      100     0.000     0.000     0.000     0.000       89        0       30        0        0        1        0    19.713       99     48.2    9.497   10.552     0.81    0.000    0.000       31       12     2011  cluster_301.PRM
   Tot(2)        1        7     2012   1066.7   2439.0   3118.2   394.06    491.4   1065.6      1.1      0.0      0.0    803.7       46    807.2    807.2      100     0.000     0.000     0.000     0.000       89        0       30        0        0        2        0    19.436       97     48.2    9.363   10.404     0.86    0.000    0.000       31       12     2012  cluster_301.PRM
   Tot(3)        1        7     2013   1144.9   2435.4   3116.9   396.74    540.3   1141.2      3.7      0.0      0.0    895.1       52    832.4    832.4      100     0.000     0.000     0.000     0.000       89        0       30        0        0        1        0    19.911       99     48.2    9.593   10.658     0.82    0.000    0.000       31       12     2013  cluster_301.PRM
   Tot(4)        1        7     2014   1111.2   2434.8   3134.6   398.81    512.0   1105.5      5.7      0.0      0.0    848.3       49    823.3    823.3      100     0.000     0.000     0.000     0.000       89        0       30        0        0        1        0    19.821       99     48.1    9.543   10.603     0.80    0.000    0.000       31       12     2014  cluster_301.PRM
   Tot(5)        1        7     2015   1107.3   2421.8   3122.9   401.01    564.7   1100.4      6.9      0.0      0.0    872.3       51    826.8    826.8      100     0.000     0.000     0.000     0.000       89        0       30        0        0        1        0    19.924       99     48.2    9.598   10.665     0.82    0.000    0.000       31       12     2015  cluster_301.PRM
