AquaCrop 7.1 (August 2023) - Output created on (date) : 29-01-2026   at (time) : 01:20:23

   Run:   1
   Day Month  Year   DAP Stage   WC(2.30)   Rain     Irri   Surf   Infilt   RO    Drain       CR    Zgwt       Ex       E     E/Ex     Trx       Tr  Tr/Trx    ETx      ET  ET/ETx      GD       Z     StExp  StSto  StSen StSalt StWeed   CC      CCw     StTr  Kc(Tr)     Trx       Tr      TrW  Tr/Trx   WP    Biomass     HI    Y(dry)  Y(fresh)  Brelative    WPet      Bin     Bout  WC(2.30) Wr(2.30)     Z       Wr    Wr(SAT)    Wr(FC)   Wr(exp)   Wr(sto)   Wr(sen)   Wr(PWP)    SaltIn    SaltOut   SaltUp   Salt(2.30)  SaltZ     Z       ECe    ECsw   StSalt  Zgwt    ECgw       WC01       WC 2       WC 3       WC 4       WC 5       WC 6       WC 7       WC 8       WC 9       WC10       WC11       WC12      ECe01      ECe 2      ECe 3      ECe 4      ECe 5      ECe 6      ECe 7      ECe 8      ECe 9      ECe10      ECe11      ECe12     Rain       ETo      Tmin      Tavg      Tmax      CO2
                                      mm      mm       mm     mm     mm     mm       mm       mm      m        mm       mm     %        mm       mm    %        mm      mm       %  degC-day     m       %      %      %      %      %      %       %       %       -        mm       mm       mm    %     g/m2    ton/ha      %    ton/ha   ton/ha       %       kg/m3   ton/ha   ton/ha      mm       mm       m       mm        mm        mm        mm        mm        mm         mm    ton/ha    ton/ha    ton/ha    ton/ha    ton/ha     m      dS/m    dS/m      %     m      dS/m       0.05       0.18       0.33       0.48       0.63       0.80       1.00       1.20       1.43       1.68       1.93       2.18       0.05       0.18       0.33       0.48       0.63       0.80       1.00       1.20       1.43       1.68       1.93       2.18       mm        mm     degC      degC      degC       ppm
     1     7  2024     1     1     268.8     0.5      0.0    0.0    0.5    0.0      0.0      0.0   -9.90      0.2      0.2    100      0.0      0.0   100      0.2     0.2     100     20.6    0.30     -9     -9     -9      0     -9     0.0     0.0      0    -9.00      0.0      0.0      0.0   100     0.0     0.000    -9.9    0.000    0.000      -9        0.00    0.000    0.000     268.8    268.8    0.30    34.8     125.1      34.6      30.7      12.4      15.5       6.9    0.000     0.000     0.000     0.000     0.000    0.30     0.00    0.00      0   -9.90   -9.00       12.0       11.7       11.7       11.7       11.7       11.7       11.7       11.7       11.7       11.7       11.7       11.7        0.0        0.0        0.0        0.0        0.0        0.0        0.0        0.0        0.0        0.0        0.0        0.0      0.5       0.2      27.1      28.8      30.4    422.57
     2     7  2024     2     1     270.7     2.1      0.0    0.0    2.1    0.0      0.1      0.0   -9.90      0.2      0.2    100      0.0      0.0   100      0.2     0.2     100     18.8    0.30     -9     -9     -9      0     -9     0.0     0.0      0    -9.00      0.0      0.0      0.0   100     0.0     0.000    -9.9    0.000    0.000      -9        0.00    0.000    0.000     270.7    270.7    0.30    36.6     125.1      34.6      30.7      12.4      15.5       6.9    0.000     0.000     0.000     0.000     0.000    0.30     0.00    0.00      0   -9.90   -9.00       13.7       11.7       11.7       11.7       11.7       11.7       11.7       11.7       11.7       11.7       11.7       11.7        0.0        0.0        0.0        0.0        0.0        0.0        0.0        0.0        0.0        0.0        0.0        0.0      2.1       0.1      25.8      26.8      27.8    422.57
     3     7  2024     3     1     307.9    52.1      0.0    0.0   38.1   14.0      0.7      0.0   -9.90      0.2      0.2    100      0.0      0.0   100      0.2     0.2     100     19.7    0.30     -9     -9     -9      0     -9     0.0     0.0      0    -9.00      0.0      0.0      0.0   100     0.0     0.000    -9.9    0.000    0.000      -9        0.00    0.000    0.000     307.9    307.9    0.30    73.1     125.1      34.6      30.7      12.4      15.5       6.9    0.000     0.000     0.000     0.000     0.000    0.30     0.00    0.00      0   -9.90   -9.00       42.1       17.5       11.9       11.8       11.8       11.7       11.7       11.7       11.7       11.7       11.7       11.7        0.0        0.0        0.0        0.0        0.0        0.0        0.0        0.0        0.0        0.0        0.0        0.0     52.1       0.2      26.0      27.7      29.5    422.57
     4     7  2024     4     1     290.8     2.3      0.0    0.0    2.3    0.0     19.2      0.0   -9.90      0.2      0.2    100      0.0      0.0   100      0.2     0.2     100     20.3    0.30     -9     -9     -9      0     -9     0.0     0.0      0    -9.00      0.0      0.0      0.0   100     0.0     0.000    -9.9    0.000    0.000      -9        0.00    0.000    0.000     290.8    290.8    0.30    39.2     125.1      34.6      30.7      12.4      15.5       6.9    0.000     0.000     0.000     0.000     0.000    0.30     0.00    0.00      0   -9.90   -9.00       13.9       12.3       14.7       13.8       13.2       12.8       12.5       12.4       12.2       12.1       12.1       12.0        0.0        0.0        0.0        0.0        0.0        0.0        0.0        0.0        0.0        0.0        0.0        0.0      2.3       0.2      26.8      28.3      29.9    422.57
     5     7  2024     5     1     277.2     1.0      0.0    0.0    1.0    0.0     14.4      0.0   -9.90      0.2      0.2    100      0.0      0.0   100      0.2     0.2     100     19.8    0.32     -9     -9     -9      0     -9     0.0     0.0      0    -9.00      0.0      0.0      0.0   100     0.0     0.000    -9.9    0.000    0.000      -9        0.00    0.000    0.000     277.2    277.2    0.32    38.8     133.5      36.9      32.8      13.2      16.5       7.4    0.000     0.000     0.000     0.000     0.000    0.32     0.00    0.00      0   -9.90   -9.00       12.7       12.0       12.4       12.2       12.2       12.1       12.1       12.0       12.0       12.0       11.9       11.9        0.0        0.0        0.0        0.0        0.0        0.0        0.0        0.0        0.0        0.0        0.0        0.0      1.0       0.2      26.4      27.8      29.1    422.57
     6     7  2024     6     1     271.8     0.8      0.0    0.0    0.8    0.0      6.0      0.0   -9.90      0.2      0.2    100      0.0      0.0   100      0.2     0.2     100     20.1    0.36     -9     -9     -9      0     -9     0.0     0.0      0    -9.00      0.0      0.0      0.0   100     0.0     0.000    -9.9    0.000    0.000      -9        0.00    0.000    0.000     271.8    271.8    0.36    42.6     150.6      41.6      37.0      15.0      18.7       8.4    0.000     0.000     0.000     0.000     0.000    0.36     0.00    0.00      0   -9.90   -9.00       12.4       11.8       11.9       11.8       11.8       11.8       11.8       11.8       11.8       11.8       11.8       11.8        0.0        0.0        0.0        0.0        0.0        0.0        0.0        0.0        0.0        0.0        0.0        0.0      0.8       0.2      26.1      28.3      30.5    422.57
     7     7  2024     7     2     279.1     9.8      0.0    0.0    9.7    0.2      2.1      0.0   -9.90      0.2      0.2    100      0.0      0.0   100      0.2     0.2     100     18.7    0.40     -9      0      0      0      0     0.4     0.4      0     0.01      0.0      0.0      0.0   100    35.0     0.003    -9.9    0.000    0.000     100        0.00    0.000    0.000     279.1    279.1    0.40    55.8     166.4      46.0      34.2      16.6      16.6       9.3    0.000     0.000     0.000     0.000     0.000    0.40     0.00    0.00      0   -9.90   -9.00       21.4       11.8       11.8       11.8       11.8       11.7       11.7       11.7       11.7       11.7       11.7       11.7        0.0        0.0        0.0        0.0        0.0        0.0        0.0        0.0        0.0        0.0        0.0        0.0      9.8       0.2      25.1      26.7      28.4    422.57
     8     7  2024     8     2     292.5    19.0      0.0    0.0   17.5    1.5      4.0      0.0   -9.90      0.1      0.1    100      0.0      0.0   100      0.1     0.1     100     17.8    0.43     -9      0      0      0      0     0.5     0.5      0     0.01      0.0      0.0      0.0   100    35.0     0.006    -9.9    0.000    0.000     100        0.00    0.000    0.000     292.5    292.5    0.43    71.0     181.2      50.1      37.2      18.1      18.1      10.2    0.000     0.000     0.000     0.000     0.000    0.43     0.00    0.00      0   -9.90   -9.00       30.4       12.4       12.6       12.2       12.0       11.9       11.9       11.8       11.8       11.8       11.8       11.8        0.0        0.0        0.0        0.0        0.0        0.0        0.0        0.0        0.0        0.0        0.0        0.0     19.0       0.1      25.0      25.8      26.5    422.57
     9     7  2024     9     2     328.1    71.7      0.0    0.0   46.6   25.1     10.8      0.0   -9.90      0.2      0.2    100      0.0      0.0   100      0.2     0.2     100     19.6    0.47      0      0      0      0      0     0.6     0.6      0     0.01      0.0      0.0      0.0   100    35.0     0.010    -9.9    0.000    0.000     100        0.00    0.000    0.000     328.1    328.1    0.47   106.5     195.4      54.0      40.2      19.6      19.6      11.0    0.000     0.000     0.000     0.000     0.000    0.47     0.00    0.00      0   -9.90   -9.00       42.1       24.8       13.4       12.8       12.5       12.3       12.1       12.0       12.0       11.9       11.9       11.9        0.0        0.0        0.0        0.0        0.0        0.0        0.0        0.0        0.0        0.0        0.0        0.0     71.7       0.2      26.0      27.6      29.1    422.57
    10     7  2024    10     2     295.0     0.3      0.0    0.0    0.3    0.0     33.2      0.0   -9.90      0.2      0.2    100      0.0      0.0   100      0.2     0.2     100     19.5    0.50      0      0      0      0      0     0.7     0.7      0     0.01      0.0      0.0      0.0   100    35.0     0.014    -9.9    0.000    0.000     100        0.00    0.000    0.000     295.0    295.0    0.50    65.5     209.1      57.8      43.1      21.0      21.0      11.9    0.000     0.000     0.000     0.000     0.000    0.50     0.00    0.00      0   -9.90   -9.00       11.8       11.7       15.0       14.3       13.7       13.3       12.9       12.7       12.5       12.4       12.3       12.2        0.0        0.0        0.0        0.0        0.0        0.0        0.0        0.0        0.0        0.0        0.0        0.0      0.3       0.2      25.5      27.5      29.6    422.57
    11     7  2024    11     2     285.0     8.6      0.0    0.0    8.5    0.1     18.2      0.0   -9.90      0.2      0.2    100      0.0      0.0   100      0.2     0.2     100     19.1    0.53      0      0      0      0      0     0.8     0.8      0     0.01      0.0      0.0      0.0   100    35.0     0.019    -9.9    0.000    0.000     100        0.00    0.000    0.000     285.0    285.0    0.53    71.6     222.3      61.4      45.8      22.3      22.3      12.6    0.000     0.000     0.000     0.000     0.000    0.53     0.00    0.00      0   -9.90   -9.00       20.1       11.7       12.5       12.3       12.2       12.1       12.1       12.1       12.0       12.0       12.0       12.0        0.0        0.0        0.0        0.0        0.0        0.0        0.0        0.0        0.0        0.0        0.0        0.0      8.6       0.2      25.3      27.1      28.9    422.57
    12     7  2024    12     2     278.9     3.5      0.0    0.0    3.5    0.0      9.4      0.0   -9.90      0.2      0.2    100      0.0      0.0   100      0.2     0.2     100     19.5    0.56      0      0      0      0      0     1.0     1.0      0     0.02      0.0      0.0      0.0   100    35.0     0.026    -9.9    0.000    0.000     100        0.00    0.000    0.000     278.9    278.9    0.56    71.6     235.2      65.0      48.4      23.6      23.6      13.4    0.000     0.000     0.000     0.000     0.000    0.56     0.00    0.00      0   -9.90   -9.00       15.5       12.3       12.5       12.2       12.1       12.0       12.0       11.9       11.9       11.9       11.9       11.8        0.0        0.0        0.0        0.0        0.0        0.0        0.0        0.0        0.0        0.0        0.0        0.0      3.5       0.2      26.2      27.5      28.9    422.57
    13     7  2024    13     2     278.4     5.4      0.0    0.0    5.4    0.0      5.7      0.0   -9.90      0.2      0.2    100      0.0      0.0   100      0.2     0.2     100     19.0    0.59      0      0      0      0      0     1.2     1.2      0     0.02      0.0      0.0      0.0   100    35.0     0.033    -9.9    0.000    0.000     100        0.00    0.000    0.000     278.4    278.4    0.59    75.9     247.7      68.4      50.9      24.9      24.9      14.1    0.000     0.000     0.000     0.000     0.000    0.59     0.00    0.00      0   -9.90   -9.00       17.5       12.1       12.1       12.0       11.9       11.9       11.9       11.8       11.8       11.8       11.8       11.8        0.0        0.0        0.0        0.0        0.0        0.0        0.0        0.0        0.0        0.0        0.0        0.0      5.4       0.2      25.8      27.0      28.2    422.57
    14     7  2024    14     2     289.4    17.2      0.0    0.0   16.0    1.1      4.7      0.0   -9.90      0.2      0.2    100      0.0      0.0   100      0.2     0.2     100     18.9    0.62      0      0      0      0      0     1.4     1.4      0     0.02      0.0      0.0      0.0   100    35.0     0.041    -9.9    0.000    0.000     100        0.00    0.000    0.000     289.4    289.4    0.62    90.6     259.9      71.8      53.5      26.2      26.2      14.8    0.000     0.000     0.000     0.000     0.000    0.62     0.00    0.00      0   -9.90   -9.00       28.5       12.2       12.3       12.1       12.0       11.9       11.9       11.8       11.8       11.8       11.8       11.8        0.0        0.0        0.0        0.0        0.0        0.0        0.0        0.0        0.0        0.0        0.0        0.0     17.2       0.2      24.9      26.9      28.9    422.57
    15     7  2024    15     2     288.1     8.4      0.0    0.0    8.3    0.1      9.4      0.0   -9.90      0.2      0.2    100      0.0      0.0   100      0.2     0.2     100     19.4    0.65      0      0      0      0      0     1.6     1.6      0     0.03      0.0      0.0      0.0   100    35.0     0.051    -9.9    0.000    0.000     100        0.00    0.000    0.000     288.1    288.1    0.65    90.1     271.9      75.1      55.9      27.4      27.4      15.6    0.000     0.000     0.000     0.000     0.000    0.65     0.00    0.00      0   -9.90   -9.00       20.9       12.8       13.3       12.6       12.4       12.2       12.1       12.0       11.9       11.9       11.9       11.8        0.0        0.0        0.0        0.0        0.0        0.0        0.0        0.0        0.0        0.0        0.0        0.0      8.4       0.2      26.0      27.4      28.7    422.57
    16     7  2024    16     2     284.8     7.1      0.0    0.0    7.0    0.0     10.2      0.0   -9.90      0.1      0.1    100      0.0      0.0   100      0.2     0.2     100     19.3    0.67      0      0      0      0      0     1.9     1.9      0     0.03      0.0      0.0      0.0   100    35.0     0.063    -9.9    0.000    0.000     100        0.00    0.000    0.000     284.8    284.8    0.67    90.4     283.6      78.3      58.3      28.5      28.5      16.2    0.000     0.000     0.000     0.000     0.000    0.67     0.00    0.00      0   -9.90   -9.00       19.6       12.5       12.7       12.4       12.2       12.1       12.0       12.0       11.9       11.9       11.9       11.9        0.0        0.0        0.0        0.0        0.0        0.0        0.0        0.0        0.0        0.0        0.0        0.0      7.1       0.1      26.3      27.3      28.2    422.57
    17     7  2024    17     2     297.1    23.6      0.0    0.0   21.0    2.6      8.5      0.0   -9.90      0.2      0.2    100      0.0      0.0   100      0.2     0.2     100     19.1    0.70      0      0      0      0      0     2.3     2.3      0     0.04      0.0      0.0      0.0   100    35.0     0.077    -9.9    0.000    0.000     100        0.00    0.000    0.000     297.1    297.1    0.70   106.8     295.2      81.5      60.7      29.7      29.7      16.9    0.000     0.000     0.000     0.000     0.000    0.70     0.00    0.00      0   -9.90   -9.00       33.8       12.4       12.5       12.2       12.1       12.0       12.0       11.9       11.9       11.9       11.8       11.8        0.0        0.0        0.0        0.0        0.0        0.0        0.0        0.0        0.0        0.0        0.0        0.0     23.6       0.2      25.9      27.1      28.4    422.57
    18     7  2024    18     2     313.7    38.4      0.0    0.0   30.7    7.7     14.1      0.0   -9.90      0.1      0.1    100      0.0      0.0   100      0.1     0.1     100     18.3    0.73      0      0      0      0      0     2.7     2.7      0     0.05      0.0      0.0      0.0   100    35.0     0.094    -9.9    0.000    0.000     100        0.00    0.000    0.000     313.7    313.7    0.73   123.4     306.5      84.6      63.0      30.8      30.8      17.6    0.000     0.000     0.000     0.000     0.000    0.73     0.00    0.00      0   -9.90   -9.00       42.2       13.0       13.7       13.0       13.0       12.4       12.3       12.2       12.0       12.0       12.0       11.9        0.0        0.0        0.0        0.0        0.0        0.0        0.0        0.0        0.0        0.0        0.0        0.0     38.4       0.1      25.4      26.3      27.2    422.57
    19     7  2024    19     2     317.3    34.4      0.0    0.0   28.3    6.1     24.5      0.0   -9.90      0.2      0.2    100      0.0      0.0   100      0.2     0.2     100     19.3    0.75      0      0      0      0      0     3.2     3.2      0     0.06      0.0      0.0      0.0   100    35.0     0.113    -9.9    0.000    0.000     100        0.00    0.000    0.000     317.3    317.3    0.75   126.8     317.7      87.7      65.4      32.1      32.1      18.3    0.000     0.000     0.000     0.000     0.000    0.75     0.00    0.00      0   -9.90   -9.00       40.3       12.7       14.4       13.6       13.1       12.8       12.6       12.4       12.3       12.2       12.1       12.1        0.0        0.0        0.0        0.0        0.0        0.0        0.0        0.0        0.0        0.0        0.0        0.0     34.4       0.2      25.3      27.3      29.2    422.57
    20     7  2024    20     2     294.1     4.6      0.0    0.0    4.6    0.0     27.5      0.0   -9.90      0.2      0.2    100      0.0      0.0   100      0.2     0.2     100     20.4    0.78      0      0      0      0      0     3.7     3.7      0     0.06      0.0      0.0      0.0   100    35.0     0.136    -9.9    0.000    0.000     100        0.00    0.000    0.000     294.1    294.1    0.78   106.5     328.7      90.8      67.7      33.2      33.2      18.9    0.000     0.000     0.000     0.000     0.000    0.78     0.00    0.00      0   -9.90   -9.00       16.5       12.8       14.2       13.5       13.1       12.8       12.6       12.4       12.3       12.2       12.2       12.1        0.0        0.0        0.0        0.0        0.0        0.0        0.0        0.0        0.0        0.0        0.0        0.0      4.6       0.2      26.8      28.5      30.2    422.57
    21     7  2024    21     2     278.1     1.0      0.0    0.0    1.0    0.0     16.8      0.0   -9.90      0.2      0.2    100      0.0      0.0   100      0.2     0.2     100     20.4    0.81      0      0      0      0      0     4.4     4.4      0     0.08      0.0      0.0      0.0   100    35.0     0.163    -9.9    0.000    0.000     100        0.00    0.000    0.000     278.1    278.1    0.81    98.5     339.6      93.8      70.0      34.3      34.3      19.5    0.000     0.000     0.000     0.000     0.000    0.81     0.00    0.00      0   -9.90   -9.00       12.6       12.2       12.3       12.3       12.2       12.2       12.1       12.1       12.0       12.0       12.0       11.9        0.0        0.0        0.0        0.0        0.0        0.0        0.0        0.0        0.0        0.0        0.0        0.0      1.0       0.2      26.9      28.6      30.3    422.57
    22     7  2024    22     2     272.1     0.8      0.0    0.0    0.8    0.0      6.6      0.0   -9.90      0.2      0.2    100      0.0      0.0   100      0.2     0.2     100     20.2    0.83      0      0      0      0      0     5.2     5.2      0     0.09      0.0      0.0      0.0   100    35.0     0.194    -9.9    0.000    0.000     100        0.00    0.000    0.000     272.1    272.1    0.83    98.6     350.3      96.7      72.1      35.4      35.4      20.2    0.000     0.000     0.000     0.000     0.000    0.83     0.00    0.00      0   -9.90   -9.00       12.5       11.8       11.9       11.9       11.8       11.8       11.8       11.8       11.8       11.8       11.8       11.8        0.0        0.0        0.0        0.0        0.0        0.0        0.0        0.0        0.0        0.0        0.0        0.0      0.8       0.2      26.7      28.2      29.6    422.57
    23     7  2024    23     2     273.0     3.4      0.0    0.0    3.4    0.0      2.3      0.0   -9.90      0.1      0.1    100      0.0      0.0   100      0.2     0.2     100     19.3    0.86      0      0      0      0      0     6.1     6.1      0     0.10      0.0      0.0      0.0   100    35.0     0.231    -9.9    0.000    0.000     100        0.00    0.000    0.000     273.0    273.0    0.86   103.5     360.9      99.7      74.2      36.4      36.4      20.8    0.000     0.000     0.000     0.000     0.000    0.86     0.00    0.00      0   -9.90   -9.00       15.1       11.8       11.8       11.8       11.8       11.7       11.7       11.7       11.7       11.7       11.7       11.7        0.0        0.0        0.0        0.0        0.0        0.0        0.0        0.0        0.0        0.0        0.0        0.0      3.4       0.1      26.2      27.3      28.3    422.57
    24     7  2024    24     2     279.7     8.8      0.0    0.0    8.7    0.1      1.9      0.0   -9.90      0.1      0.1    100      0.0      0.0   100      0.1     0.1     100     18.5    0.88      0      0      0      0      0     7.2     7.2      0     0.12      0.0      0.0      0.0   100    35.0     0.274    -9.9    0.000    0.000     100        0.00    0.000    0.000     279.7    279.7    0.88   113.0     371.4     102.5      76.3      37.4      37.4      21.4    0.000     0.000     0.000     0.000     0.000    0.88     0.00    0.00      0   -9.90   -9.00       20.8       12.0       12.0       11.9       11.8       11.8       11.8       11.8       11.7       11.7       11.7       11.7        0.0        0.0        0.0        0.0        0.0        0.0        0.0        0.0        0.0        0.0        0.0        0.0      8.8       0.1      25.7      26.5      27.4    422.57
    25     7  2024    25     2     310.9    47.7      0.0    0.0   35.9   11.8      4.5      0.0   -9.90      0.1      0.1    100      0.0      0.0   100      0.1     0.1     100     18.1    0.91      0      0      0      0      0     8.5     8.5      0     0.14      0.0      0.0      0.0   100    35.0     0.324    -9.9    0.000    0.000     100        0.00    0.000    0.000     310.9    310.9    0.91   146.2     381.7     105.4      78.3      38.4      38.4      22.0    0.000     0.000     0.000     0.000     0.000    0.91     0.00    0.00      0   -9.90   -9.00       42.2       16.9       12.6       12.2       12.0       12.0       11.9       11.8       11.8       11.8       11.8       11.8        0.0        0.0        0.0        0.0        0.0        0.0        0.0        0.0        0.0        0.0        0.0        0.0     47.7       0.1      25.6      26.1      26.6    422.57
    26     7  2024    26     2     325.2    48.1      0.0    0.0   36.1   12.0     21.7      0.0   -9.90      0.1      0.1    100      0.0      0.0   100      0.2     0.2     100     18.9    0.93      0      0      0      0      0    10.0    10.0      0     0.17      0.0      0.0      0.0   100    35.0     0.383    -9.9    0.000    0.000     100        0.00    0.000    0.000     325.2    325.2    0.93   157.5     392.0     108.2      80.7      39.6      39.6      22.6    0.000     0.000     0.000     0.000     0.000    0.93     0.00    0.00      0   -9.90   -9.00       42.1       16.4       14.7       13.8       13.2       12.9       12.6       12.4       12.3       12.2       12.1       12.0        0.0        0.0        0.0        0.0        0.0        0.0        0.0        0.0        0.0        0.0        0.0        0.0     48.1       0.2      25.6      26.9      28.1    422.57
    27     7  2024    27     2     304.6    12.5      0.0    0.0   12.1    0.4     32.4      0.0   -9.90      0.2      0.2    100      0.0      0.0   100      0.2     0.2     100     20.1    0.95      0      0      0      0      0    11.8    11.8      0     0.20      0.0      0.0      0.0   100    35.0     0.452    -9.9    0.000    0.000     100        0.00    0.000    0.000     304.6    304.6    0.95   137.6     402.2     111.0      82.9      40.7      40.7      23.2    0.000     0.000     0.000     0.000     0.000    0.95     0.00    0.00      0   -9.90   -9.00       23.8       12.4       14.6       13.9       13.4       13.1       12.8       12.6       12.5       12.3       12.3       12.2        0.0        0.0        0.0        0.0        0.0        0.0        0.0        0.0        0.0        0.0        0.0        0.0     12.5       0.2      26.2      28.3      30.5    422.57
    28     7  2024    28     2     284.1     2.2      0.0    0.0    2.2    0.0     22.5      0.0   -9.90      0.2      0.2    100      0.0      0.0   100      0.2     0.2     100     20.3    0.98      0      0      0      0      0    14.0    14.0      0     0.23      0.0      0.0      0.0   100    35.0     0.532    -9.9    0.000    0.000     100        0.00    0.000    0.000     284.1    284.1    0.98   123.6     412.2     113.8      84.9      41.7      41.7      23.8    0.000     0.000     0.000     0.000     0.000    0.98     0.00    0.00      0   -9.90   -9.00       14.0       12.6       12.9       12.6       12.5       12.4       12.3       12.2       12.2       12.1       12.1       12.0        0.0        0.0        0.0        0.0        0.0        0.0        0.0        0.0        0.0        0.0        0.0        0.0      2.2       0.2      26.6      28.3      30.1    422.57
    29     7  2024    29     2     273.7     0.3      0.0    0.0    0.3    0.0     10.6      0.0   -9.90      0.1      0.1    100      0.0      0.0   100      0.2     0.2     100     20.1    1.00      0      0      0      0      0    16.5    16.5      0     0.27      0.0      0.0      0.0   100    35.0     0.626    -9.9    0.000    0.000     100        0.00    0.000    0.000     273.7    273.7    1.00   119.4     422.2     116.6      86.9      42.7      42.7      24.4    0.000     0.000     0.000     0.000     0.000    1.00     0.00    0.00      0   -9.90   -9.00       11.9       12.0       12.0       12.0       12.0       12.0       11.9       11.9       11.9       11.9       11.9       11.8        0.0        0.0        0.0        0.0        0.0        0.0        0.0        0.0        0.0        0.0        0.0        0.0      0.3       0.2      26.9      28.1      29.4    422.57
    30     7  2024    30     2     272.5     2.7      0.0    0.0    2.7    0.0      3.7      0.0   -9.90      0.1      0.1    100      0.1      0.1   100      0.2     0.2     100     19.9    1.02      0      0      0      0      0    19.4    19.4      0     0.31      0.1      0.1      0.1   100    35.0     0.734    -9.9    0.000    0.000     100        0.00    0.000    0.000     272.5    272.5    1.02   122.5     432.0     119.3      89.0      43.7      43.7      25.0    0.000     0.000     0.000     0.000     0.000    1.02     0.00    0.00      0   -9.90   -9.00       14.3       11.7       11.8       11.8       11.8       11.8       11.8       11.8       11.8       11.8       11.8       11.8        0.0        0.0        0.0        0.0        0.0        0.0        0.0        0.0        0.0        0.0        0.0        0.0      2.7       0.2      26.4      27.9      29.4    422.57
    31     7  2024    31     2     273.2     2.7      0.0    0.0    2.7    0.0      1.9      0.0   -9.90      0.1      0.1    100      0.1      0.1   100      0.2     0.2     100     19.4    1.05      0      0      0      0      0    22.9    22.9      0     0.36      0.1      0.1      0.1   100    35.0     0.859    -9.9    0.000    0.000     100        0.00    0.000    0.000     273.2    273.2    1.05   126.1     441.8     122.0      91.0      44.7      44.7      25.6    0.000     0.000     0.000     0.000     0.000    1.05     0.00    0.00      0   -9.90   -9.00       14.6       11.9       11.9       11.8       11.8       11.8       11.8       11.7       11.7       11.7       11.7       11.7        0.0        0.0        0.0        0.0        0.0        0.0        0.0        0.0        0.0        0.0        0.0        0.0      2.7       0.2      26.1      27.4      28.8    422.57
     1     8  2024    32     2     281.1    10.4      0.0    0.0   10.2    0.2      2.0      0.0   -9.90      0.1      0.1    100      0.1      0.1   100      0.2     0.2     100     20.1    1.07      0      0      0      0      0    27.0    27.0      0     0.41      0.1      0.1      0.1   100    35.0     1.003    -9.9    0.000    0.000     100        0.00    0.000    0.000     281.1    281.1    1.07   136.7     451.5     124.7      93.0      45.7      45.7      26.1    0.000     0.000     0.000     0.000     0.000    1.07     0.00    0.00      0   -9.90   -9.00       22.3       12.0       12.0       11.9       11.8       11.8       11.8       11.8       11.8       11.7       11.7       11.7        0.0        0.0        0.0        0.0        0.0        0.0        0.0        0.0        0.0        0.0        0.0        0.0     10.4       0.2      26.8      28.1      29.5    422.57
     2     8  2024    33     2     276.6     0.9      0.0    0.0    0.9    0.0      5.2      0.0   -9.90      0.1      0.1    100      0.1      0.1   100      0.2     0.2     100     19.9    1.09      0      0      0      0      0    31.8    31.8      0     0.47      0.1      0.1      0.1   100    35.0     1.168    -9.9    0.000    0.000     100        0.00    0.000    0.000     276.6    276.6    1.09   133.8     461.2     127.3      95.0      46.7      46.7      26.7    0.000     0.000     0.000     0.000     0.000    1.09     0.00    0.00      0   -9.90   -9.00       12.6       12.5       12.7       12.5       12.2       12.0       12.0       11.9       11.8       11.8       11.8       11.8        0.0        0.0        0.0        0.0        0.0        0.0        0.0        0.0        0.0        0.0        0.0        0.0      0.9       0.2      26.2      27.9      29.6    422.57
     3     8  2024    34     2     271.6     0.2      0.0    0.0    0.2    0.0      5.0      0.0   -9.90      0.1      0.1    100      0.1      0.1   100      0.2     0.2     100     19.8    1.12      0      0      0      0      0    37.5    37.5      0     0.54      0.1      0.1      0.1   100    35.0     1.357    -9.9    0.000    0.000     100        0.00    0.000    0.000     271.6    271.6    1.12   131.8     470.7     130.0      97.1      47.7      47.7      27.3    0.000     0.000     0.000     0.000     0.000    1.12     0.00    0.00      0   -9.90   -9.00       11.7       11.8       11.9       11.9       11.9       11.9       11.8       11.8       11.8       11.8       11.8       11.8        0.0        0.0        0.0        0.0        0.0        0.0        0.0        0.0        0.0        0.0        0.0        0.0      0.2       0.2      25.8      27.8      29.9    422.57
     4     8  2024    35     2     289.7    22.8      0.0    0.0   20.4    2.4      2.2      0.0   -9.90      0.1      0.1    100      0.1      0.1   100      0.1     0.1     100     18.1    1.14      0      0      0      0      0    44.3    44.3      0     0.61      0.1      0.1      0.1   100    35.0     1.571    -9.9    0.000    0.000     100        0.00    0.000    0.000     289.7    289.7    1.14   153.3     480.2     132.6      98.7      48.5      48.5      27.8    0.000     0.000     0.000     0.000     0.000    1.14     0.00    0.00      0   -9.90   -9.00       32.3       11.7       11.8       11.8       11.7       11.7       11.7       11.7       11.7       11.7       11.7       11.7        0.0        0.0        0.0        0.0        0.0        0.0        0.0        0.0        0.0        0.0        0.0        0.0     22.8       0.1      25.2      26.1      27.1    422.57
     5     8  2024    36     2     303.4    26.1      0.0    0.0   22.8    3.3      9.0      0.0   -9.90      0.1      0.1    100      0.1      0.1   100      0.1     0.1     100     18.1    1.16      0      0      0      0      0    51.8    51.8      0     0.69      0.1      0.1      0.1   100    35.0     1.812    -9.9    0.000    0.000     100        0.00    0.000    0.000     303.4    303.4    1.16   167.8     489.6     135.2     100.7      49.5      49.5      28.4    0.000     0.000     0.000     0.000     0.000    1.16     0.00    0.00      0   -9.90   -9.00       35.6       12.8       13.5       12.8       12.4       12.2       12.1       12.0       11.9       11.9       11.9       11.8        0.0        0.0        0.0        0.0        0.0        0.0        0.0        0.0        0.0        0.0        0.0        0.0     26.1       0.1      25.1      26.1      27.1    422.57
     6     8  2024    37     2     309.9    28.3      0.0    0.0   24.3    4.0     17.7      0.0   -9.90      0.1      0.1    100      0.1      0.1   100      0.2     0.2     100     19.1    1.18      0      0      0      0      0    58.4    58.4      0     0.75      0.1      0.1      0.1   100    35.0     2.075    -9.9    0.000    0.000     100        0.00    0.000    0.000     309.9    309.9    1.18   174.9     499.0     137.8     102.8      50.5      50.5      28.9    0.000     0.000     0.000     0.000     0.000    1.18     0.00    0.00      0   -9.90   -9.00       36.9       12.9       13.9       13.2       12.8       12.6       12.4       12.2       12.1       12.1       12.0       12.0        0.0        0.0        0.0        0.0        0.0        0.0        0.0        0.0        0.0        0.0        0.0        0.0     28.3       0.2      25.6      27.1      28.7    422.57
     7     8  2024    38     2     289.3     2.2      0.0    0.0    2.2    0.0     22.6      0.0   -9.90      0.0      0.0    100      0.1      0.1   100      0.2     0.2     100     19.0    1.20      0      0      0      0      0    64.0    64.0      0     0.80      0.1      0.1      0.1   100    35.0     2.354    -9.9    0.000    0.000     100        0.00    0.000    0.000     289.3    289.3    1.20   156.2     508.3     140.3     104.6      51.4      51.4      29.5    0.000     0.000     0.000     0.000     0.000    1.20     0.00    0.00      0   -9.90   -9.00       14.1       12.9       14.0       13.3       12.9       12.7       12.5       12.3       12.2       12.1       12.1       12.0        0.0        0.0        0.0        0.0        0.0        0.0        0.0        0.0        0.0        0.0        0.0        0.0      2.2       0.2      25.8      27.0      28.1    422.57
     8     8  2024    39     2     285.4     9.9      0.0    0.0    9.7    0.2     13.4      0.0   -9.90      0.0      0.0    100      0.1      0.1   100      0.2     0.2     100     19.2    1.23      0      0      0      0      0    68.8    68.8      0     0.84      0.1      0.1      0.1   100    35.0     2.647    -9.9    0.000    0.000     100        0.00    0.000    0.000     285.4    285.4    1.23   157.1     517.5     142.9     106.6      52.4      52.4      30.0    0.000     0.000     0.000     0.000     0.000    1.23     0.00    0.00      0   -9.90   -9.00       21.7       12.0       12.2       12.1       12.1       12.1       12.0       12.0       12.0       11.9       11.9       11.9        0.0        0.0        0.0        0.0        0.0        0.0        0.0        0.0        0.0        0.0        0.0        0.0      9.9       0.2      25.8      27.2      28.6    422.57
     9     8  2024    40     2     284.0     7.6      0.0    0.0    7.6    0.0      8.7      0.0   -9.90      0.0      0.0    100      0.2      0.2   100      0.2     0.2     100     19.6    1.25      0      0      0      0      0    72.8    72.8      0     0.87      0.2      0.2      0.2   100    35.0     2.950    -9.9    0.000    0.000     100        0.00    0.000    0.000     284.0    284.0    1.25   159.1     526.7     145.4     108.6      53.4      53.4      30.6    0.000     0.000     0.000     0.000     0.000    1.25     0.00    0.00      0   -9.90   -9.00       20.1       12.4       12.6       12.3       12.1       12.0       12.0       11.9       11.9       11.9       11.8       11.8        0.0        0.0        0.0        0.0        0.0        0.0        0.0        0.0        0.0        0.0        0.0        0.0      7.6       0.2      25.9      27.6      29.4    422.57
    10     8  2024    41     2     279.9     3.9      0.0    0.0    3.9    0.0      7.9      0.0   -9.90      0.0      0.0    100      0.1      0.1   100      0.2     0.2     100     18.7    1.27      0      0      0      0      0    76.2    76.2      0     0.89      0.1      0.1      0.1   100    35.0     3.263    -9.9    0.000    0.000     100        0.00    0.000    0.000     279.9    279.9    1.27   157.6     535.8     147.9     110.2      54.2      54.2      31.1    0.000     0.000     0.000     0.000     0.000    1.27     0.00    0.00      0   -9.90   -9.00       16.1       12.4       12.6       12.3       12.1       12.0       12.0       11.9       11.9       11.9       11.8       11.8        0.0        0.0        0.0        0.0        0.0        0.0        0.0        0.0        0.0        0.0        0.0        0.0      3.9       0.1      25.6      26.7      27.7    422.57
    11     8  2024    42     2     291.4    19.4      0.0    0.0   17.8    1.6      6.1      0.0   -9.90      0.0      0.0    100      0.2      0.2   100      0.2     0.2     100     18.9    1.29      0      0      0      0      0    79.1    79.1      0     0.91      0.2      0.2      0.2   100    35.0     3.584    -9.9    0.000    0.000     100        0.00    0.000    0.000     291.4    291.4    1.29   172.0     544.9     150.4     112.3      55.2      55.2      31.6    0.000     0.000     0.000     0.000     0.000    1.29     0.00    0.00      0   -9.90   -9.00       30.2       12.1       12.2       12.1       12.0       11.9       11.9       11.9       11.8       11.8       11.8       11.8        0.0        0.0        0.0        0.0        0.0        0.0        0.0        0.0        0.0        0.0        0.0        0.0     19.4       0.2      25.3      26.9      28.6    422.57
    12     8  2024    43     2     328.0    73.1      0.0    0.0   47.2   25.9     10.3      0.0   -9.90      0.0      0.0    100      0.2      0.2   100      0.2     0.2     100     19.8    1.31      0      0      0      0      0    81.6    81.6      0     0.93      0.2      0.2      0.2   100    35.0     3.910    -9.9    0.000    0.000     100        0.00    0.000    0.000     328.0    328.0    1.31   210.3     553.9     152.9     114.2      56.2      56.2      32.2    0.000     0.000     0.000     0.000     0.000    1.31     0.00    0.00      0   -9.90   -9.00       42.1       25.2       13.4       12.7       12.4       12.2       12.1       12.0       12.0       11.9       11.9       11.9        0.0        0.0        0.0        0.0        0.0        0.0        0.0        0.0        0.0        0.0        0.0        0.0     73.1       0.2      25.9      27.8      29.8    422.57
    13     8  2024    44     2     295.5     0.8      0.0    0.0    0.8    0.0     33.1      0.0   -9.90      0.0      0.0    100      0.2      0.2   100      0.2     0.2     100     20.4    1.33      0      0      0      0      0    83.7    83.7      0     0.95      0.2      0.2      0.2   100    35.0     4.242    -9.9    0.000    0.000     100        0.00    0.000    0.000     295.5    295.5    1.33   176.1     562.8     155.4     116.0      57.1      57.1      32.7    0.000     0.000     0.000     0.000     0.000    1.33     0.00    0.00      0   -9.90   -9.00       12.3       11.7       15.0       14.3       13.7       13.3       13.0       12.7       12.5       12.4       12.3       12.2        0.0        0.0        0.0        0.0        0.0        0.0        0.0        0.0        0.0        0.0        0.0        0.0      0.8       0.2      26.9      28.4      29.9    422.57
    14     8  2024    45     2     278.3     1.5      0.0    0.0    1.5    0.0     18.5      0.0   -9.90      0.0      0.0    100      0.2      0.2   100      0.2     0.2     100     20.3    1.35      0      0      0      0      0    85.4    85.4      0     0.96      0.2      0.2      0.2   100    35.0     4.578    -9.9    0.000    0.000     100        0.00    0.000    0.000     278.3    278.3    1.35   164.7     571.7     157.8     117.8      58.0      58.0      33.2    0.000     0.000     0.000     0.000     0.000    1.35     0.00    0.00      0   -9.90   -9.00       13.1       11.8       12.5       12.3       12.2       12.1       12.1       12.1       12.1       12.0       12.0       12.0        0.0        0.0        0.0        0.0        0.0        0.0        0.0        0.0        0.0        0.0        0.0        0.0      1.5       0.2      26.7      28.3      29.8    422.57
    15     8  2024    46     2     277.7     6.3      0.0    0.0    6.3    0.0      6.8      0.0   -9.90      0.0      0.0    100      0.2      0.2   100      0.2     0.2     100     19.0    1.37      0      0      0      0      0    86.9    86.9      0     0.97      0.2      0.2      0.2   100    35.0     4.917    -9.9    0.000    0.000     100        0.00    0.000    0.000     277.7    277.7    1.37   168.4     580.6     160.3     119.5      58.8      58.8      33.8    0.000     0.000     0.000     0.000     0.000    1.37     0.00    0.00      0   -9.90   -9.00       18.2       11.8       11.9       11.9       11.8       11.8       11.8       11.8       11.8       11.8       11.8       11.8        0.0        0.0        0.0        0.0        0.0        0.0        0.0        0.0        0.0        0.0        0.0        0.0      6.3       0.2      25.6      27.0      28.4    422.57
    16     8  2024    47     2     292.1    20.6      0.0    0.0   18.8    1.9      4.2      0.0   -9.90      0.0      0.0    100      0.2      0.2   100      0.2     0.2     100     19.1    1.40      0      0      0      0      0    88.2    88.2      0     0.98      0.2      0.2      0.2   100    35.0     5.260    -9.9    0.000    0.000     100        0.00    0.000    0.000     292.1    292.1    1.40   185.5     589.4     162.7     121.3      59.7      59.7      34.3    0.000     0.000     0.000     0.000     0.000    1.40     0.00    0.00      0   -9.90   -9.00       31.4       12.2       12.3       12.0       11.9       11.9       11.8       11.8       11.8       11.8       11.8       11.8        0.0        0.0        0.0        0.0        0.0        0.0        0.0        0.0        0.0        0.0        0.0        0.0     20.6       0.2      25.9      27.1      28.3    422.57
    17     8  2024    48     2     290.7     9.3      0.0    0.0    9.2    0.1     10.5      0.0   -9.90      0.0      0.0    100      0.1      0.1   100      0.1     0.1     100     18.7    1.42      0      0      0      0      0    89.3    89.3      0     0.98      0.1      0.1      0.1   100    35.0     5.605    -9.9    0.000    0.000     100        0.00    0.000    0.000     290.7    290.7    1.42   185.4     598.2     165.1     122.8      60.4      60.4      34.8    0.000     0.000     0.000     0.000     0.000    1.42     0.00    0.00      0   -9.90   -9.00       22.0       12.8       13.5       12.8       12.5       12.3       12.1       12.0       12.0       11.9       11.9       11.9        0.0        0.0        0.0        0.0        0.0        0.0        0.0        0.0        0.0        0.0        0.0        0.0      9.3       0.1      26.2      26.7      27.2    422.57
    18     8  2024    49     2     298.5    21.6      0.0    0.0   19.5    2.1     11.6      0.0   -9.90      0.0      0.0    100      0.1      0.1   100      0.2     0.2     100     19.1    1.44      0      0      0      0      0    90.2    90.2      0     0.99      0.1      0.1      0.1   100    35.0     5.952    -9.9    0.000    0.000     100        0.00    0.000    0.000     298.5    298.5    1.44   195.6     606.9     167.5     124.9      61.5      61.5      35.3    0.000     0.000     0.000     0.000     0.000    1.44     0.00    0.00      0   -9.90   -9.00       32.4       12.5       12.8       12.5       12.3       12.2       12.1       12.0       12.0       11.9       11.9       11.9        0.0        0.0        0.0        0.0        0.0        0.0        0.0        0.0        0.0        0.0        0.0        0.0     21.6       0.1      26.0      27.1      28.1    422.57
    19     8  2024    50     2     288.7     5.6      0.0    0.0    5.6    0.0     15.2      0.0   -9.90      0.0      0.0    100      0.1      0.1   100      0.2     0.2     100     18.8    1.46      0      0      0      0      0    90.9    90.9      0     1.00      0.1      0.1      0.1   100    35.0     6.301    -9.9    0.000    0.000     100        0.00    0.000    0.000     288.7    288.7    1.46   187.7     615.5     169.9     126.7      62.3      62.3      35.8    0.000     0.000     0.000     0.000     0.000    1.46     0.00    0.00      0   -9.90   -9.00       18.0       12.9       13.6       12.9       12.6       12.4       12.2       12.1       12.1       12.0       12.0       11.9        0.0        0.0        0.0        0.0        0.0        0.0        0.0        0.0        0.0        0.0        0.0        0.0      5.6       0.1      25.8      26.8      27.9    422.57
    20     8  2024    51     2     290.9    14.6      0.0    0.0   13.9    0.7     11.6      0.0   -9.90      0.0      0.0    100      0.1      0.1   100      0.1     0.1     100     18.4    1.48      0      0      0      0      0    91.6    91.6      0     1.00      0.1      0.1      0.1   100    35.0     6.652    -9.9    0.000    0.000     100        0.00    0.000    0.000     290.9    290.9    1.48   192.9     624.2     172.3     128.4      63.2      63.2      36.3    0.000     0.000     0.000     0.000     0.000    1.48     0.00    0.00      0   -9.90   -9.00       26.4       12.3       12.4       12.3       12.2       12.1       12.0       12.0       12.0       11.9       11.9       11.9        0.0        0.0        0.0        0.0        0.0        0.0        0.0        0.0        0.0        0.0        0.0        0.0     14.6       0.1      25.5      26.4      27.3    422.57
    21     8  2024    52     2     291.2    11.9      0.0    0.0   11.5    0.4     11.0      0.0   -9.90      0.0      0.0    100      0.2      0.2   100      0.2     0.2     100     18.5    1.50      0      0      0      0      0    92.1    92.1      0     1.00      0.2      0.2      0.2   100    35.0     7.003    -9.9    0.000    0.000     100        0.00    0.000    0.000     291.2    291.2    1.50   195.7     632.8     174.7     130.3      64.2      64.2      36.8    0.000     0.000     0.000     0.000     0.000    1.50     0.00    0.00      0   -9.90   -9.00       24.4       12.7       13.1       12.6       12.3       12.2       12.1       12.0       12.0       11.9       11.9       11.9        0.0        0.0        0.0        0.0        0.0        0.0        0.0        0.0        0.0        0.0        0.0        0.0     11.9       0.2      25.1      26.5      27.9    422.57
    22     8  2024    53     2     296.6    18.4      0.0    0.0   17.1    1.4     11.4      0.0   -9.90      0.0      0.0    100      0.2      0.2   100      0.2     0.2     100     19.0    1.52      0      0      0      0      0    92.6    92.6      0     1.01      0.2      0.2      0.2   100    35.0     7.356    -9.9    0.000    0.000     100        0.00    0.000    0.000     296.6    296.6    1.52   203.5     641.3     177.0     132.1      65.1      65.1      37.3    0.000     0.000     0.000     0.000     0.000    1.52     0.00    0.00      0   -9.90   -9.00       30.0       12.6       13.0       12.5       12.3       12.2       12.1       12.0       12.0       11.9       11.9       11.9        0.0        0.0        0.0        0.0        0.0        0.0        0.0        0.0        0.0        0.0        0.0        0.0     18.4       0.2      25.4      27.0      28.6    422.57
    23     8  2024    54     2     293.6    11.5      0.0    0.0   11.2    0.3     14.0      0.0   -9.90      0.0      0.0    100      0.2      0.2   100      0.2     0.2     100     20.1    1.54      0      0      0      0      0    93.0    93.0      0     1.01      0.2      0.2      0.2   100    35.0     7.710    -9.9    0.000    0.000     100        0.00    0.000    0.000     293.6    293.6    1.54   202.5     649.8     179.4     134.1      66.1      66.1      37.8    0.000     0.000     0.000     0.000     0.000    1.54     0.00    0.00      0   -9.90   -9.00       24.0       12.8       13.4       12.8       12.5       12.3       12.2       12.1       12.0       12.0       11.9       11.9        0.0        0.0        0.0        0.0        0.0        0.0        0.0        0.0        0.0        0.0        0.0        0.0     11.5       0.2      26.3      28.4      30.5    422.57
    24     8  2024    55     2     281.1     1.3      0.0    0.0    1.3    0.0     13.6      0.0   -9.90      0.0      0.0    100      0.2      0.2   100      0.2     0.2     100     19.4    1.56      0      0      0      0      0    93.3    93.3      0     1.01      0.2      0.2      0.2   100    35.0     8.064    -9.9    0.000    0.000     100        0.00    0.000    0.000     281.1    281.1    1.56   192.4     658.3     181.7     135.6      66.8      66.8      38.3    0.000     0.000     0.000     0.000     0.000    1.56     0.00    0.00      0   -9.90   -9.00       13.1       12.6       12.9       12.6       12.5       12.2       12.2       12.1       12.0       12.0       12.0       11.9        0.0        0.0        0.0        0.0        0.0        0.0        0.0        0.0        0.0        0.0        0.0        0.0      1.3       0.2      25.9      27.4      28.8    422.57
    25     8  2024    56     3     276.5     3.7      0.0    0.0    3.7    0.0      8.2      0.0   -9.90      0.0      0.0    100      0.2      0.2   100      0.2     0.2     100     20.0    1.58      0      0      0      0      0    93.5    93.5      0     1.01      0.2      0.2      0.2   100    35.0     8.420    -9.9    0.000    0.000     100        0.00    0.000    0.000     276.5    276.5    1.58   191.0     666.7     184.0     137.4      67.7      67.7      38.8    0.000     0.000     0.000     0.000     0.000    1.58     0.00    0.00      0   -9.90   -9.00       15.5       11.9       12.0       12.0       12.0       11.9       11.9       11.9       11.9       11.8       11.8       11.8        0.0        0.0        0.0        0.0        0.0        0.0        0.0        0.0        0.0        0.0        0.0        0.0      3.7       0.2      26.3      28.0      29.8    422.57
    26     8  2024    57     3     283.6    12.0      0.0    0.0   11.6    0.4      4.3      0.0   -9.90      0.0      0.0    100      0.2      0.2   100      0.2     0.2     100     19.2    1.60      0      0      0      0      0    93.7    93.7      0     1.01      0.2      0.2      0.2   100    35.0     8.775    -9.9    0.000    0.000     100        0.00    0.000    0.000     283.6    283.6    1.60   200.9     675.1     186.4     139.0      68.5      68.5      39.3    0.000     0.000     0.000     0.000     0.000    1.60     0.00    0.00      0   -9.90   -9.00       23.9       12.0       12.1       11.9       11.9       11.8       11.8       11.8       11.8       11.8       11.8       11.8        0.0        0.0        0.0        0.0        0.0        0.0        0.0        0.0        0.0        0.0        0.0        0.0     12.0       0.2      25.9      27.2      28.6    422.57
    27     8  2024    58     3     282.9     6.2      0.0    0.0    6.1    0.0      6.6      0.0   -9.90      0.0      0.0    100      0.2      0.2   100      0.2     0.2     100     20.2    1.62      0      0      0      0      0    93.9    93.9      0     1.02      0.2      0.2      0.2   100    35.0     9.131     1.5    0.137    0.153     100        1.28    0.000    0.000     282.9    282.9    1.62   202.2     683.5     188.7     140.9      69.4      69.4      39.8    0.000     0.000     0.000     0.000     0.000    1.62     0.00    0.00      0   -9.90   -9.00       18.6       12.6       12.8       12.4       12.2       12.0       12.0       11.9       11.9       11.9       11.8       11.8        0.0        0.0        0.0        0.0        0.0        0.0        0.0        0.0        0.0        0.0        0.0        0.0      6.2       0.2      26.4      28.2      30.0    422.57
    28     8  2024    59     3     276.0     0.7      0.0    0.0    0.7    0.0      7.5      0.0   -9.90      0.0      0.0    100      0.2      0.2   100      0.2     0.2     100     20.5    1.64      0      0      0      0      0    94.0    94.0      0     1.02      0.2      0.2      0.2   100    35.0     9.487     1.8    0.175    0.194     100        1.60    0.000    0.000     276.0    276.0    1.64   197.4     691.8     191.0     142.6      70.2      70.2      40.3    0.000     0.000     0.000     0.000     0.000    1.64     0.00    0.00      0   -9.90   -9.00       12.3       12.3       12.4       12.3       12.2       12.0       12.0       11.9       11.9       11.9       11.8       11.8        0.0        0.0        0.0        0.0        0.0        0.0        0.0        0.0        0.0        0.0        0.0        0.0      0.7       0.2      27.0      28.6      30.2    422.57
    29     8  2024    60     3     272.5     1.5      0.0    0.0    1.5    0.0      4.8      0.0   -9.90      0.0      0.0    100      0.2      0.2   100      0.2     0.2     100     19.2    1.66      0      0      0      0      0    95.2    95.2      0     1.02      0.2      0.2      0.2   100    35.0     9.846     2.3    0.222    0.247     100        1.99    0.000    0.000     272.5    272.5    1.66   196.6     700.1     193.3     144.1      71.0      71.0      40.8    0.000     0.000     0.000     0.000     0.000    1.66     0.00    0.00      0   -9.90   -9.00       13.1       11.8       11.9       11.9       11.9       11.8       11.8       11.8       11.8       11.8       11.8       11.8        0.0        0.0        0.0        0.0        0.0        0.0        0.0        0.0        0.0        0.0        0.0        0.0      1.5       0.2      26.0      27.2      28.4    422.57
    30     8  2024    61     3     295.8    30.6      0.0    0.0   25.9    4.7      2.3      0.0   -9.90      0.0      0.0    100      0.2      0.2   100      0.2     0.2     100     19.6    1.68     -9      0      0      0      0    95.3    95.3      0     1.02      0.2      0.2      0.2   100    35.0    10.205     2.8    0.281    0.312     100        2.48    0.000    0.000     295.8    295.8    1.68   222.5     708.4     195.5     146.1      72.0      72.0      41.3    0.000     0.000     0.000     0.000     0.000    1.68     0.00    0.00      0   -9.90   -9.00       38.0       11.8       11.8       11.8       11.8       11.8       11.8       11.7       11.7       11.7       11.7       11.7        0.0        0.0        0.0        0.0        0.0        0.0        0.0        0.0        0.0        0.0        0.0        0.0     30.6       0.2      25.8      27.6      29.4    422.57
    31     8  2024    62     3     284.7     1.5      0.0    0.0    1.5    0.0     12.4      0.0   -9.90      0.0      0.0    100      0.2      0.2   100      0.2     0.2     100     19.6    1.70     -9      0      0      0      0    95.4    95.4      0     1.02      0.2      0.2      0.2   100    35.0    10.564     3.3    0.354    0.393     100        3.07    0.000    0.000     284.7    284.7    1.70   212.6     716.6     197.8     147.7      72.8      72.8      41.8    0.000     0.000     0.000     0.000     0.000    1.70     0.00    0.00      0   -9.90   -9.00       13.3       12.9       14.0       13.1       12.7       12.4       12.2       12.1       12.0       12.0       11.9       11.9        0.0        0.0        0.0        0.0        0.0        0.0        0.0        0.0        0.0        0.0        0.0        0.0      1.5       0.2      26.0      27.6      29.2    422.57
     1     9  2024    63     3     284.4    10.1      0.0    0.0    9.9    0.2     10.0      0.0   -9.90      0.0      0.0    100      0.2      0.2   100      0.2     0.2     100     19.4    1.71     -9      0      0      0      0    95.5    95.5      0     1.02      0.2      0.2      0.2   100    35.0    10.921     4.1    0.444    0.493     100        3.78    0.000    0.000     284.4    284.4    1.71   214.9     724.8     200.1     149.4      73.6      73.6      42.3    0.000     0.000     0.000     0.000     0.000    1.71     0.00    0.00      0   -9.90   -9.00       21.8       11.9       12.2       12.1       12.1       12.0       12.0       12.0       11.9       11.9       11.9       11.9        0.0        0.0        0.0        0.0        0.0        0.0        0.0        0.0        0.0        0.0        0.0        0.0     10.1       0.2      25.4      27.4      29.4    422.57
     2     9  2024    64     3     296.2    22.0      0.0    0.0   19.8    2.2      7.8      0.0   -9.90      0.0      0.0    100      0.2      0.2   100      0.2     0.2     100     19.0    1.73     -9      0      0      0      0    95.6    95.6      0     1.02      0.2      0.2      0.2   100    35.0    11.278     4.9    0.555    0.616     100        4.64    0.000    0.000     296.2    296.2    1.73   229.2     732.9     202.3     151.1      74.5      74.5      42.7    0.000     0.000     0.000     0.000     0.000    1.73     0.00    0.00      0   -9.90   -9.00       32.7       12.4       12.6       12.3       12.1       12.0       11.9       11.9       11.9       11.9       11.8       11.8        0.0        0.0        0.0        0.0        0.0        0.0        0.0        0.0        0.0        0.0        0.0        0.0     22.0       0.2      25.1      27.0      28.9    422.57
     3     9  2024    65     3     284.4     1.9      0.0    0.0    1.9    0.0     13.4      0.0   -9.90      0.0      0.0    100      0.2      0.2   100      0.2     0.2     100     19.8    1.75     -9      0      0      0      0    95.6    95.6      0     1.02      0.2      0.2      0.2   100    35.0    11.634     5.9    0.689    0.766     100        5.68    0.000    0.000     284.4    284.4    1.75   219.0     741.1     204.6     152.7      75.3      75.3      43.2    0.000     0.000     0.000     0.000     0.000    1.75     0.00    0.00      0   -9.90   -9.00       13.7       12.9       13.6       12.9       12.6       12.4       12.2       12.2       12.0       12.0       12.0       11.9        0.0        0.0        0.0        0.0        0.0        0.0        0.0        0.0        0.0        0.0        0.0        0.0      1.9       0.2      26.2      27.8      29.5    422.57
     4     9  2024    66     3     276.2     1.9      0.0    0.0    1.9    0.0      9.9      0.0   -9.90      0.0      0.0    100      0.2      0.2   100      0.2     0.2     100     20.0    1.77     -9      0      0      0      0    95.7    95.7      0     1.01      0.2      0.2      0.2   100    35.0    11.989     7.1    0.852    0.947     100        6.91    0.000    0.000     276.2    276.2    1.77   213.6     749.2     206.8     154.4      76.1      76.1      43.7    0.000     0.000     0.000     0.000     0.000    1.77     0.00    0.00      0   -9.90   -9.00       13.7       12.0       12.1       12.1       12.1       12.0       12.0       11.9       11.9       11.9       11.9       11.8        0.0        0.0        0.0        0.0        0.0        0.0        0.0        0.0        0.0        0.0        0.0        0.0      1.9       0.2      26.6      28.0      29.4    422.57
     5     9  2024    67     3     274.1     2.9      0.0    0.0    2.9    0.0      4.8      0.0   -9.90      0.0      0.0    100      0.2      0.2   100      0.2     0.2     100     20.4    1.79     -9      0      0      0      0    95.7    95.7      0     1.01      0.2      0.2      0.2   100    35.0    12.343     8.5    1.046    1.162     100        8.37    0.000    0.000     274.1    274.1    1.79   214.2     757.2     209.0     155.9      76.8      76.8      44.2    0.000     0.000     0.000     0.000     0.000    1.79     0.00    0.00      0   -9.90   -9.00       14.7       11.9       11.9       11.9       11.8       11.8       11.8       11.8       11.8       11.8       11.8       11.8        0.0        0.0        0.0        0.0        0.0        0.0        0.0        0.0        0.0        0.0        0.0        0.0      2.9       0.2      27.3      28.4      29.5    422.57
     6     9  2024    68     3     271.7     0.7      0.0    0.0    0.7    0.0      2.9      0.0   -9.90      0.0      0.0    100      0.2      0.2   100      0.2     0.2     100     20.0    1.81     -9      0      0      0      0    95.8    95.8      0     1.01      0.2      0.2      0.2   100    35.0    12.697    10.0    1.269    1.410     100       10.01    0.000    0.000     271.7    271.7    1.81   214.2     765.3     211.2     157.7      77.7      77.7      44.6    0.000     0.000     0.000     0.000     0.000    1.81     0.00    0.00      0   -9.90   -9.00       12.3       12.0       12.0       11.9       11.9       11.8       11.8       11.8       11.8       11.8       11.8       11.7        0.0        0.0        0.0        0.0        0.0        0.0        0.0        0.0        0.0        0.0        0.0        0.0      0.7       0.2      26.5      28.0      29.5    422.57
     7     9  2024    69     4     270.0     0.3      0.0    0.0    0.3    0.0      1.9      0.0   -9.90      0.0      0.0    100      0.2      0.2   100      0.2     0.2     100     20.0    1.83     -9      0      0      0      0    95.8    95.8      0     1.01      0.2      0.2      0.2   100    35.0    13.049    11.5    1.502    1.669     100       11.67    0.000    0.000     270.0    270.0    1.83   214.7     773.3     213.5     159.5      78.6      78.6      45.1    0.000     0.000     0.000     0.000     0.000    1.83     0.00    0.00      0   -9.90   -9.00       11.9       11.8       11.8       11.8       11.8       11.8       11.8       11.7       11.7       11.7       11.7       11.7        0.0        0.0        0.0        0.0        0.0        0.0        0.0        0.0        0.0        0.0        0.0        0.0      0.3       0.2      26.2      28.0      29.8    422.57
     8     9  2024    70     4     269.4     0.6      0.0    0.0    0.6    0.0      0.9      0.0   -9.90      0.0      0.0    100      0.2      0.2   100      0.2     0.2     100     20.1    1.85     -9      0      0      0      0    95.8    95.8      0     1.00      0.2      0.2      0.2   100    35.0    13.401    13.0    1.747    1.941     100       13.36    0.000    0.000     269.4    269.4    1.85   216.4     781.3     215.7     161.1      79.4      79.4      45.6    0.000     0.000     0.000     0.000     0.000    1.85     0.00    0.00      0   -9.90   -9.00       12.1       11.7       11.7       11.7       11.7       11.7       11.7       11.7       11.7       11.7       11.7       11.7        0.0        0.0        0.0        0.0        0.0        0.0        0.0        0.0        0.0        0.0        0.0        0.0      0.6       0.2      26.2      28.1      30.0    422.57
     9     9  2024    71     4     287.5    20.5      0.0    0.0   18.7    1.8      0.5      0.0   -9.90      0.0      0.0    100      0.2      0.2   100      0.2     0.2     100     18.6    1.87     -9      0      0      0      0    95.9    95.9      0     1.00      0.2      0.2      0.2   100    35.0    13.751    14.6    2.001    2.224     100       15.13    0.000    0.000     287.5    287.5    1.87   236.8     789.2     217.9     162.4      80.0      80.0      46.1    0.000     0.000     0.000     0.000     0.000    1.87     0.00    0.00      0   -9.90   -9.00       30.6       11.7       11.7       11.7       11.7       11.7       11.7       11.7       11.7       11.7       11.7       11.7        0.0        0.0        0.0        0.0        0.0        0.0        0.0        0.0        0.0        0.0        0.0        0.0     20.5       0.1      25.5      26.6      27.8    422.57
    10     9  2024    72     4     309.3    36.6      0.0    0.0   29.6    6.9      7.7      0.0   -9.90      0.0      0.0    100      0.2      0.2   100      0.2     0.2     100     19.0    1.89     -9      0      0      0      0    95.9    95.9      0     1.00      0.2      0.2      0.2   100    35.0    14.101    16.1    2.267    2.518     100       16.93    0.000    0.000     309.3    309.3    1.89   260.2     797.2     220.0     164.1      80.9      80.9      46.5    0.000     0.000     0.000     0.000     0.000    1.89     0.00    0.00      0   -9.90   -9.00       41.8       12.8       13.4       12.7       12.6       12.2       12.1       12.0       11.9       11.9       11.9       11.8        0.0        0.0        0.0        0.0        0.0        0.0        0.0        0.0        0.0        0.0        0.0        0.0     36.6       0.2      25.8      27.0      28.3    422.57
    11     9  2024    73     4     300.9    13.5      0.0    0.0   13.0    0.6     21.2      0.0   -9.90      0.0      0.0    100      0.2      0.2   100      0.2     0.2     100     19.0    1.90     -9      0      0      0      0    95.9    95.9      0     0.99      0.2      0.2      0.2   100    35.0    14.449    17.6    2.542    2.825     100       18.72    0.000    0.000     300.9    300.9    1.90   253.2     805.1     222.2     165.9      81.8      81.8      47.0    0.000     0.000     0.000     0.000     0.000    1.90     0.00    0.00      0   -9.90   -9.00       24.8       12.7       14.3       13.5       13.0       12.8       12.5       12.4       12.2       12.1       12.1       12.0        0.0        0.0        0.0        0.0        0.0        0.0        0.0        0.0        0.0        0.0        0.0        0.0     13.5       0.2      25.3      27.0      28.8    422.57
    12     9  2024    74     4     284.6     2.8      0.0    0.0    2.8    0.0     18.9      0.0   -9.90      0.0      0.0    100      0.2      0.2   100      0.2     0.2     100     19.3    1.92     -9      0      0      0      0    95.9    95.9      0     0.99      0.2      0.2      0.2   100    35.0    14.797    19.1    2.828    3.143     100       20.52    0.000    0.000     284.6    284.6    1.92   239.2     813.0     224.4     167.7      82.7      82.7      47.5    0.000     0.000     0.000     0.000     0.000    1.92     0.00    0.00      0   -9.90   -9.00       14.8       12.6       13.0       12.7       12.5       12.4       12.3       12.2       12.1       12.1       12.0       12.0        0.0        0.0        0.0        0.0        0.0        0.0        0.0        0.0        0.0        0.0        0.0        0.0      2.8       0.2      25.3      27.3      29.2    422.57
    13     9  2024    75     4     278.9     4.7      0.0    0.0    4.7    0.0     10.2      0.0   -9.90      0.0      0.0    100      0.2      0.2   100      0.2     0.2     100     19.8    1.94     -9      0      0      0      0    95.9    95.9      0     0.99      0.2      0.2      0.2   100    35.0    15.144    20.6    3.125    3.472     100       22.31    0.000    0.000     278.9    278.9    1.94   236.3     820.8     226.6     169.4      83.5      83.5      47.9    0.000     0.000     0.000     0.000     0.000    1.94     0.00    0.00      0   -9.90   -9.00       16.7       12.1       12.1       12.1       12.0       12.0       11.9       11.9       11.9       11.9       11.9       11.8        0.0        0.0        0.0        0.0        0.0        0.0        0.0        0.0        0.0        0.0        0.0        0.0      4.7       0.2      25.6      27.8      30.0    422.57
    14     9  2024    76     4     280.1     7.0      0.0    0.0    6.9    0.0      5.6      0.0   -9.90      0.0      0.0    100      0.2      0.2   100      0.2     0.2     100     19.1    1.96     -9      0     -9      0      0    95.3    95.3      0     0.98      0.2      0.2      0.2   100    35.0    15.486    22.2    3.431    3.812     100       24.17    0.000    0.000     280.1    280.1    1.96   239.9     828.6     228.7     170.8      84.2      84.2      48.4    0.000     0.000     0.000     0.000     0.000    1.96     0.00    0.00      0   -9.90   -9.00       19.2       12.1       12.2       12.0       11.9       11.9       11.9       11.8       11.8       11.8       11.8       11.8        0.0        0.0        0.0        0.0        0.0        0.0        0.0        0.0        0.0        0.0        0.0        0.0      7.0       0.2      25.5      27.1      28.7    422.57
    15     9  2024    77     4     285.0    10.7      0.0    0.0   10.5    0.2      5.3      0.0   -9.90      0.0      0.0    100      0.2      0.2   100      0.2     0.2     100     19.6    1.98     -9      0     -9      0      0    94.6    94.6      0     0.96      0.2      0.2      0.2   100    35.0    15.823    23.7    3.746    4.162     100       26.02    0.000    0.000     285.0    285.0    1.98   247.1     836.4     230.9     172.6      85.1      85.1      48.8    0.000     0.000     0.000     0.000     0.000    1.98     0.00    0.00      0   -9.90   -9.00       23.0       12.3       12.4       12.1       12.0       11.9       11.9       11.9       11.8       11.8       11.8       11.8        0.0        0.0        0.0        0.0        0.0        0.0        0.0        0.0        0.0        0.0        0.0        0.0     10.7       0.2      25.7      27.6      29.6    422.57
    16     9  2024    78     4     286.8     9.6      0.0    0.0    9.4    0.1      7.5      0.0   -9.90      0.0      0.0    100      0.1      0.1   100      0.1     0.1     100     18.4    2.00     -9      0     -9      0      0    93.9    93.9      0     0.95      0.1      0.1      0.1   100    35.0    16.155    25.2    4.070    4.523     100       28.01    0.000    0.000     286.8    286.8    2.00   250.8     844.2     233.0     173.7      85.6      85.6      49.3    0.000     0.000     0.000     0.000     0.000    2.00     0.00    0.00      0   -9.90   -9.00       22.2       12.5       12.8       12.4       12.2       12.1       12.0       11.9       11.9       11.9       11.8       11.8        0.0        0.0        0.0        0.0        0.0        0.0        0.0        0.0        0.0        0.0        0.0        0.0      9.6       0.1      25.5      26.4      27.4    422.57
    17     9  2024    79     4     310.1    41.7      0.0    0.0   32.7    9.1      9.1      0.0   -9.90      0.0      0.0    100      0.1      0.1   100      0.1     0.1     100     18.1    2.01     -9      0     -9      0      0    93.0    93.0      0     0.93      0.1      0.1      0.1   100    35.0    16.481    26.7    4.403    4.892     100       30.04    0.000    0.000     310.1    310.1    2.01   276.3     852.0     235.2     175.2      86.3      86.3      49.8    0.000     0.000     0.000     0.000     0.000    2.01     0.00    0.00      0   -9.90   -9.00       42.2       14.5       12.8       12.4       12.3       12.1       12.1       12.0       11.9       11.9       11.9       11.8        0.0        0.0        0.0        0.0        0.0        0.0        0.0        0.0        0.0        0.0        0.0        0.0     41.7       0.1      25.3      26.1      26.9    422.57
    18     9  2024    80     4     313.9    30.0      0.0    0.0   25.5    4.5     21.6      0.0   -9.90      0.0      0.0    100      0.2      0.2   100      0.2     0.2     100     18.9    2.03     -9      0     -9      0      0    92.0    92.0      0     0.91      0.2      0.2      0.2   100    35.0    16.801    28.2    4.744    5.271     100       31.97    0.000    0.000     313.9    313.9    2.03   281.7     859.7     237.3     177.2      87.4      87.4      50.2    0.000     0.000     0.000     0.000     0.000    2.03     0.00    0.00      0   -9.90   -9.00       37.5       12.6       14.5       13.6       13.1       12.8       12.5       12.4       12.3       12.2       12.1       12.0        0.0        0.0        0.0        0.0        0.0        0.0        0.0        0.0        0.0        0.0        0.0        0.0     30.0       0.2      25.2      26.9      28.6    422.57
    19     9  2024    81     4     295.6     7.2      0.0    0.0    7.1    0.0     25.2      0.0   -9.90      0.0      0.0    100      0.2      0.2   100      0.2     0.2     100     19.1    2.05     -9      0     -9      0      0    90.9    90.9      0     0.89      0.2      0.2      0.2   100    35.0    17.113    29.8    5.092    5.658     100       33.92    0.000    0.000     295.6    295.6    2.05   265.5     867.4     239.4     178.8      88.2      88.2      50.7    0.000     0.000     0.000     0.000     0.000    2.05     0.00    0.00      0   -9.90   -9.00       19.4       12.8       14.0       13.4       13.0       12.7       12.5       12.4       12.3       12.2       12.1       12.1        0.0        0.0        0.0        0.0        0.0        0.0        0.0        0.0        0.0        0.0        0.0        0.0      7.2       0.2      25.4      27.1      28.8    422.57
    20     9  2024    82     4     282.4     3.6      0.0    0.0    3.6    0.0     16.7      0.0   -9.90      0.0      0.0    100      0.2      0.2   100      0.2     0.2     100     19.8    2.07     -9      0     -9      0      0    89.6    89.6      0     0.87      0.2      0.2      0.2   100    35.0    17.418    31.3    5.448    6.053     100       35.82    0.000    0.000     282.4    282.4    2.07   254.8     875.1     241.5     180.5      89.0      89.0      51.1    0.000     0.000     0.000     0.000     0.000    2.07     0.00    0.00      0   -9.90   -9.00       15.7       12.4       12.6       12.4       12.3       12.2       12.1       12.1       12.0       12.0       12.0       11.9        0.0        0.0        0.0        0.0        0.0        0.0        0.0        0.0        0.0        0.0        0.0        0.0      3.6       0.2      25.9      27.8      29.8    422.57
    21     9  2024    83     4     280.0     6.2      0.0    0.0    6.2    0.0      8.3      0.0   -9.90      0.0      0.0    100      0.2      0.2   100      0.2     0.2     100     19.3    2.09     -9      0     -9      0      0    88.2    88.2      0     0.84      0.2      0.2      0.2   100    35.0    17.714    32.8    5.810    6.455     100       37.78    0.000    0.000     280.0    280.0    2.09   254.8     882.8     243.7     182.0      89.7      89.7      51.6    0.000     0.000     0.000     0.000     0.000    2.09     0.00    0.00      0   -9.90   -9.00       18.3       12.1       12.2       12.0       12.0       11.9       11.9       11.9       11.9       11.8       11.8       11.8        0.0        0.0        0.0        0.0        0.0        0.0        0.0        0.0        0.0        0.0        0.0        0.0      6.2       0.2      25.6      27.3      29.1    422.57
    22     9  2024    84     4     300.2    31.1      0.0    0.0   26.2    4.9      5.9      0.0   -9.90      0.0      0.0    100      0.1      0.1   100      0.2     0.2     100     19.0    2.10     -9      0     -9      0      0    86.6    86.6      0     0.82      0.1      0.1      0.1   100    35.0    18.001    34.3    6.177    6.864     100       39.78    0.000    0.000     300.2    300.2    2.10   277.2     890.4     245.8     183.4      90.4      90.4      52.0    0.000     0.000     0.000     0.000     0.000    2.10     0.00    0.00      0   -9.90   -9.00       38.7       12.2       12.4       12.1       12.0       11.9       11.9       11.9       11.8       11.8       11.8       11.8        0.0        0.0        0.0        0.0        0.0        0.0        0.0        0.0        0.0        0.0        0.0        0.0     31.1       0.2      25.5      27.0      28.4    422.57
    23     9  2024    85     4     300.0    16.0      0.0    0.0   15.1    0.9     15.1      0.0   -9.90      0.0      0.0    100      0.2      0.2   100      0.2     0.2     100     19.5    2.12     -9      0     -9      0      0    84.8    84.8      0     0.79      0.2      0.2      0.2   100    35.0    18.277    35.8    6.550    7.278     100       41.69    0.000    0.000     300.0    300.0    2.12   278.9     898.0     247.9     185.3      91.4      91.4      52.5    0.000     0.000     0.000     0.000     0.000    2.12     0.00    0.00      0   -9.90   -9.00       27.4       12.8       14.1       13.2       12.8       12.5       12.3       12.2       12.1       12.0       12.0       11.9        0.0        0.0        0.0        0.0        0.0        0.0        0.0        0.0        0.0        0.0        0.0        0.0     16.0       0.2      25.5      27.5      29.5    422.57
    24     9  2024    86     4     285.8     3.3      0.0    0.0    3.3    0.0     17.3      0.0   -9.90      0.0      0.0    100      0.2      0.2   100      0.2     0.2     100     19.8    2.14     -9      0     -9      0      0    82.8    82.8      0     0.76      0.2      0.2      0.2   100    35.0    18.542    37.4    6.927    7.697     100       43.60    0.000    0.000     285.8    285.8    2.14   266.7     905.6     250.0     186.8      92.2      92.2      52.9    0.000     0.000     0.000     0.000     0.000    2.14     0.00    0.00      0   -9.90   -9.00       15.3       12.8       13.2       12.8       12.6       12.4       12.3       12.2       12.1       12.1       12.0       12.0        0.0        0.0        0.0        0.0        0.0        0.0        0.0        0.0        0.0        0.0        0.0        0.0      3.3       0.2      25.9      27.8      29.8    422.57
    25     9  2024    87     4     289.7    15.6      0.0    0.0   14.7    0.9     10.7      0.0   -9.90      0.0      0.0    100      0.1      0.1   100      0.1     0.1     100     18.0    2.16     -9      0     -9      0      0    80.5    80.5      0     0.72      0.1      0.1      0.1   100    35.0    18.795    38.9    7.307    8.119     100       45.66    0.000    0.000     289.7    289.7    2.16   273.0     913.2     252.1     187.9      92.6      92.6      53.4    0.000     0.000     0.000     0.000     0.000    2.16     0.00    0.00      0   -9.90   -9.00       27.0       12.1       12.2       12.1       12.1       12.0       12.0       11.9       11.9       11.9       11.9       11.9        0.0        0.0        0.0        0.0        0.0        0.0        0.0        0.0        0.0        0.0        0.0        0.0     15.6       0.1      25.0      26.0      27.0    422.57
[...]
    10    12  2025    -9     0     263.5     0.0      0.0    0.0    0.0    0.0      0.0      0.0   -9.90      0.3      0.2     71      0.0      0.0   100      0.3     0.2      71     18.5    2.28     -9     -9     -9      0     -9     0.0     0.0      0    -9.00      0.0      0.0      0.0   100    35.1    20.220    48.0    9.706   10.784     100       55.01    0.000    0.000     263.5    263.5    2.28   261.4     965.7     266.5     199.3      98.6      98.3      56.5    0.000     0.000     0.000     0.000     0.000    2.28     0.00    0.00      0   -9.90   -9.00        6.5       11.7       11.7       11.7       11.7       11.7       11.7       11.7       11.7       11.7       11.7       11.7        0.0        0.0        0.0        0.0        0.0        0.0        0.0        0.0        0.0        0.0        0.0        0.0      0.0       0.3      23.0      26.5      30.1    424.57
    11    12  2025    -9     0     263.3     0.0      0.0    0.0    0.0    0.0      0.0      0.0   -9.90      0.3      0.2     65      0.0      0.0   100      0.3     0.2      65     17.9    2.28     -9     -9     -9      0     -9     0.0     0.0      0    -9.00      0.0      0.0      0.0   100    35.1    20.220    48.0    9.706   10.784     100       55.01    0.000    0.000     263.3    263.3    2.28   261.2     965.7     266.5     199.3      98.6      98.3      56.5    0.000     0.000     0.000     0.000     0.000    2.28     0.00    0.00      0   -9.90   -9.00        6.3       11.7       11.7       11.7       11.7       11.7       11.7       11.7       11.7       11.7       11.7       11.7        0.0        0.0        0.0        0.0        0.0        0.0        0.0        0.0        0.0        0.0        0.0        0.0      0.0       0.3      22.0      25.9      29.7    424.57
    12    12  2025    -9     0     263.1     0.0      0.0    0.0    0.0    0.0      0.0      0.0   -9.90      0.3      0.2     61      0.0      0.0   100      0.3     0.2      61     17.5    2.28     -9     -9     -9      0     -9     0.0     0.0      0    -9.00      0.0      0.0      0.0   100    35.1    20.220    48.0    9.706   10.784     100       55.01    0.000    0.000     263.1    263.1    2.28   261.1     965.7     266.5     199.3      98.6      98.3      56.5    0.000     0.000     0.000     0.000     0.000    2.28     0.00    0.00      0   -9.90   -9.00        6.1       11.7       11.7       11.7       11.7       11.7       11.7       11.7       11.7       11.7       11.7       11.7        0.0        0.0        0.0        0.0        0.0        0.0        0.0        0.0        0.0        0.0        0.0        0.0      0.0       0.3      21.3      25.5      29.6    424.57
    13    12  2025    -9     0     262.9     0.0      0.0    0.0    0.0    0.0      0.0      0.0   -9.90      0.3      0.2     57      0.0      0.0   100      0.3     0.2      57     16.9    2.28     -9     -9     -9      0     -9     0.0     0.0      0    -9.00      0.0      0.0      0.0   100    35.1    20.220    48.0    9.706   10.784     100       55.01    0.000    0.000     262.9    262.9    2.28   260.9     965.7     266.5     199.3      98.5      98.3      56.5    0.000     0.000     0.000     0.000     0.000    2.28     0.00    0.00      0   -9.90   -9.00        6.0       11.7       11.7       11.7       11.7       11.7       11.7       11.7       11.7       11.7       11.7       11.7        0.0        0.0        0.0        0.0        0.0        0.0        0.0        0.0        0.0        0.0        0.0        0.0      0.0       0.3      21.4      24.9      28.4    424.57
    14    12  2025    -9     0     262.8     0.0      0.0    0.0    0.0    0.0      0.0      0.0   -9.90      0.3      0.1     54      0.0      0.0   100      0.3     0.1      54     14.7    2.28     -9     -9     -9      0     -9     0.0     0.0      0    -9.00      0.0      0.0      0.0   100    35.1    20.220    48.0    9.706   10.784     100       55.01    0.000    0.000     262.8    262.8    2.28   260.7     965.7     266.5     199.3      98.4      98.3      56.5    0.000     0.000     0.000     0.000     0.000    2.28     0.00    0.00      0   -9.90   -9.00        5.8       11.7       11.7       11.7       11.7       11.7       11.7       11.7       11.7       11.7       11.7       11.7        0.0        0.0        0.0        0.0        0.0        0.0        0.0        0.0        0.0        0.0        0.0        0.0      0.0       0.2      19.4      22.7      26.0    424.57
    15    12  2025    -9     0     262.6     0.0      0.0    0.0    0.0    0.0      0.0      0.0   -9.90      0.3      0.2     52      0.0      0.0   100      0.3     0.2      52     14.9    2.28     -9     -9     -9      0     -9     0.0     0.0      0    -9.00      0.0      0.0      0.0   100    35.1    20.220    48.0    9.706   10.784     100       55.01    0.000    0.000     262.6    262.6    2.28   260.6     965.7     266.5     199.3      98.6      98.3      56.5    0.000     0.000     0.000     0.000     0.000    2.28     0.00    0.00      0   -9.90   -9.00        5.6       11.7       11.7       11.7       11.7       11.7       11.7       11.7       11.7       11.7       11.7       11.7        0.0        0.0        0.0        0.0        0.0        0.0        0.0        0.0        0.0        0.0        0.0        0.0      0.0       0.3      18.7      22.9      27.1    424.57
    16    12  2025    -9     0     262.5     0.0      0.0    0.0    0.0    0.0      0.0      0.0   -9.90      0.3      0.1     49      0.0      0.0   100      0.3     0.1      49     16.8    2.28     -9     -9     -9      0     -9     0.0     0.0      0    -9.00      0.0      0.0      0.0   100    35.1    20.220    48.0    9.706   10.784     100       55.01    0.000    0.000     262.5    262.5    2.28   260.5     965.7     266.5     199.3      98.5      98.3      56.5    0.000     0.000     0.000     0.000     0.000    2.28     0.00    0.00      0   -9.90   -9.00        5.5       11.7       11.7       11.7       11.7       11.7       11.7       11.7       11.7       11.7       11.7       11.7        0.0        0.0        0.0        0.0        0.0        0.0        0.0        0.0        0.0        0.0        0.0        0.0      0.0       0.3      21.4      24.8      28.3    424.57
    17    12  2025    -9     0     262.4     0.0      0.0    0.0    0.0    0.0      0.0      0.0   -9.90      0.3      0.1     47      0.0      0.0   100      0.3     0.1      47     16.8    2.28     -9     -9     -9      0     -9     0.0     0.0      0    -9.00      0.0      0.0      0.0   100    35.1    20.220    48.0    9.706   10.784     100       55.01    0.000    0.000     262.4    262.4    2.28   260.3     965.7     266.5     199.3      98.4      98.3      56.5    0.000     0.000     0.000     0.000     0.000    2.28     0.00    0.00      0   -9.90   -9.00        5.4       11.7       11.7       11.7       11.7       11.7       11.7       11.7       11.7       11.7       11.7       11.7        0.0        0.0        0.0        0.0        0.0        0.0        0.0        0.0        0.0        0.0        0.0        0.0      0.0       0.2      21.7      24.8      27.8    424.57
    18    12  2025    -9     0     262.3     0.0      0.0    0.0    0.0    0.0      0.0      0.0   -9.90      0.3      0.1     45      0.0      0.0   100      0.3     0.1      45     15.8    2.28     -9     -9     -9      0     -9     0.0     0.0      0    -9.00      0.0      0.0      0.0   100    35.1    20.220    48.0    9.706   10.784     100       55.01    0.000    0.000     262.3    262.3    2.28   260.2     965.7     266.5     199.3      98.4      98.3      56.5    0.000     0.000     0.000     0.000     0.000    2.28     0.00    0.00      0   -9.90   -9.00        5.3       11.7       11.7       11.7       11.7       11.7       11.7       11.7       11.7       11.7       11.7       11.7        0.0        0.0        0.0        0.0        0.0        0.0        0.0        0.0        0.0        0.0        0.0        0.0      0.0       0.2      20.6      23.8      27.0    424.57
    19    12  2025    -9     0     262.1     0.0      0.0    0.0    0.0    0.0      0.0      0.0   -9.90      0.3      0.1     43      0.0      0.0   100      0.3     0.1      43     15.7    2.28     -9     -9     -9      0     -9     0.0     0.0      0    -9.00      0.0      0.0      0.0   100    35.1    20.220    48.0    9.706   10.784     100       55.01    0.000    0.000     262.1    262.1    2.28   260.1     965.7     266.5     199.3      98.6      98.3      56.5    0.000     0.000     0.000     0.000     0.000    2.28     0.00    0.00      0   -9.90   -9.00        5.1       11.7       11.7       11.7       11.7       11.7       11.7       11.7       11.7       11.7       11.7       11.7        0.0        0.0        0.0        0.0        0.0        0.0        0.0        0.0        0.0        0.0        0.0        0.0      0.0       0.3      19.4      23.7      27.9    424.57
    20    12  2025    -9     0     262.0     0.0      0.0    0.0    0.0    0.0      0.0      0.0   -9.90      0.3      0.1     41      0.0      0.0   100      0.3     0.1      41     17.0    2.28     -9     -9     -9      0     -9     0.0     0.0      0    -9.00      0.0      0.0      0.0   100    35.1    20.220    48.0    9.706   10.784     100       55.01    0.000    0.000     262.0    262.0    2.28   260.0     965.7     266.5     199.3      98.6      98.3      56.5    0.000     0.000     0.000     0.000     0.000    2.28     0.00    0.00      0   -9.90   -9.00        5.0       11.7       11.7       11.7       11.7       11.7       11.7       11.7       11.7       11.7       11.7       11.7        0.0        0.0        0.0        0.0        0.0        0.0        0.0        0.0        0.0        0.0        0.0        0.0      0.0       0.3      20.8      25.0      29.2    424.57
    21    12  2025    -9     0     261.9     0.0      0.0    0.0    0.0    0.0      0.0      0.0   -9.90      0.3      0.1     39      0.0      0.0   100      0.3     0.1      39     16.9    2.28     -9     -9     -9      0     -9     0.0     0.0      0    -9.00      0.0      0.0      0.0   100    35.1    20.220    48.0    9.706   10.784     100       55.01    0.000    0.000     261.9    261.9    2.28   259.8     965.7     266.5     199.3      98.7      98.3      56.5    0.000     0.000     0.000     0.000     0.000    2.28     0.00    0.00      0   -9.90   -9.00        4.9       11.7       11.7       11.7       11.7       11.7       11.7       11.7       11.7       11.7       11.7       11.7        0.0        0.0        0.0        0.0        0.0        0.0        0.0        0.0        0.0        0.0        0.0        0.0      0.0       0.3      20.5      24.9      29.3    424.57
    22    12  2025    -9     0     261.8     0.0      0.0    0.0    0.0    0.0      0.0      0.0   -9.90      0.3      0.1     37      0.0      0.0   100      0.3     0.1      37     16.9    2.28     -9     -9     -9      0     -9     0.0     0.0      0    -9.00      0.0      0.0      0.0   100    35.1    20.220    48.0    9.706   10.784     100       55.01    0.000    0.000     261.8    261.8    2.28   259.7     965.7     266.5     199.3      98.6      98.3      56.5    0.000     0.000     0.000     0.000     0.000    2.28     0.00    0.00      0   -9.90   -9.00        4.8       11.7       11.7       11.7       11.7       11.7       11.7       11.7       11.7       11.7       11.7       11.7        0.0        0.0        0.0        0.0        0.0        0.0        0.0        0.0        0.0        0.0        0.0        0.0      0.0       0.3      20.6      24.9      29.1    424.57
    23    12  2025    -9     0     261.7     0.0      0.0    0.0    0.0    0.0      0.0      0.0   -9.90      0.3      0.1     36      0.0      0.0   100      0.3     0.1      36     16.9    2.28     -9     -9     -9      0     -9     0.0     0.0      0    -9.00      0.0      0.0      0.0   100    35.1    20.220    48.0    9.706   10.784     100       55.01    0.000    0.000     261.7    261.7    2.28   259.6     965.7     266.5     199.3      98.6      98.3      56.5    0.000     0.000     0.000     0.000     0.000    2.28     0.00    0.00      0   -9.90   -9.00        4.6       11.7       11.7       11.7       11.7       11.7       11.7       11.7       11.7       11.7       11.7       11.7        0.0        0.0        0.0        0.0        0.0        0.0        0.0        0.0        0.0        0.0        0.0        0.0      0.0       0.3      20.9      24.9      28.9    424.57
    24    12  2025    -9     0     261.6     0.0      0.0    0.0    0.0    0.0      0.0      0.0   -9.90      0.3      0.1     35      0.0      0.0   100      0.3     0.1      35     17.3    2.28     -9     -9     -9      0     -9     0.0     0.0      0    -9.00      0.0      0.0      0.0   100    35.1    20.220    48.0    9.706   10.784     100       55.01    0.000    0.000     261.6    261.6    2.28   259.5     965.7     266.5     199.3      98.5      98.3      56.5    0.000     0.000     0.000     0.000     0.000    2.28     0.00    0.00      0   -9.90   -9.00        4.6       11.7       11.7       11.7       11.7       11.7       11.7       11.7       11.7       11.7       11.7       11.7        0.0        0.0        0.0        0.0        0.0        0.0        0.0        0.0        0.0        0.0        0.0        0.0      0.0       0.2      22.1      25.3      28.6    424.57
    25    12  2025    -9     0     261.5     0.0      0.0    0.0    0.0    0.0      0.0      0.0   -9.90      0.3      0.1     33      0.0      0.0   100      0.3     0.1      33     17.1    2.28     -9     -9     -9      0     -9     0.0     0.0      0    -9.00      0.0      0.0      0.0   100    35.1    20.220    48.0    9.706   10.784     100       55.01    0.000    0.000     261.5    261.5    2.28   259.4     965.7     266.5     199.3      98.7      98.3      56.5    0.000     0.000     0.000     0.000     0.000    2.28     0.00    0.00      0   -9.90   -9.00        4.4       11.7       11.7       11.7       11.7       11.7       11.7       11.7       11.7       11.7       11.7       11.7        0.0        0.0        0.0        0.0        0.0        0.0        0.0        0.0        0.0        0.0        0.0        0.0      0.0       0.3      20.7      25.1      29.4    424.57
    26    12  2025    -9     0     261.4     0.0      0.0    0.0    0.0    0.0      0.0      0.0   -9.90      0.3      0.1     32      0.0      0.0   100      0.3     0.1      32     16.6    2.28     -9     -9     -9      0     -9     0.0     0.0      0    -9.00      0.0      0.0      0.0   100    35.1    20.220    48.0    9.706   10.784     100       55.01    0.000    0.000     261.4    261.4    2.28   259.3     965.7     266.5     199.3      98.6      98.3      56.5    0.000     0.000     0.000     0.000     0.000    2.28     0.00    0.00      0   -9.90   -9.00        4.3       11.7       11.7       11.7       11.7       11.7       11.7       11.7       11.7       11.7       11.7       11.7        0.0        0.0        0.0        0.0        0.0        0.0        0.0        0.0        0.0        0.0        0.0        0.0      0.0       0.3      20.6      24.6      28.5    424.57
    27    12  2025    -9     0     261.3     0.0      0.0    0.0    0.0    0.0      0.0      0.0   -9.90      0.3      0.1     31      0.0      0.0   100      0.3     0.1      31     16.2    2.28     -9     -9     -9      0     -9     0.0     0.0      0    -9.00      0.0      0.0      0.0   100    35.1    20.220    48.0    9.706   10.784     100       55.01    0.000    0.000     261.3    261.3    2.28   259.2     965.7     266.5     199.3      98.6      98.3      56.5    0.000     0.000     0.000     0.000     0.000    2.28     0.00    0.00      0   -9.90   -9.00        4.2       11.7       11.7       11.7       11.7       11.7       11.7       11.7       11.7       11.7       11.7       11.7        0.0        0.0        0.0        0.0        0.0        0.0        0.0        0.0        0.0        0.0        0.0        0.0      0.0       0.3      19.8      24.2      28.6    424.57
    28    12  2025    -9     0     261.2     0.0      0.0    0.0    0.0    0.0      0.0      0.0   -9.90      0.3      0.1     30      0.0      0.0   100      0.3     0.1      30     16.8    2.28     -9     -9     -9      0     -9     0.0     0.0      0    -9.00      0.0      0.0      0.0   100    35.1    20.220    48.0    9.706   10.784     100       55.01    0.000    0.000     261.2    261.2    2.28   259.1     965.7     266.5     199.3      98.7      98.3      56.5    0.000     0.000     0.000     0.000     0.000    2.28     0.00    0.00      0   -9.90   -9.00        4.2       11.7       11.7       11.7       11.7       11.7       11.7       11.7       11.7       11.7       11.7       11.7        0.0        0.0        0.0        0.0        0.0        0.0        0.0        0.0        0.0        0.0        0.0        0.0      0.0       0.3      20.3      24.8      29.4    424.57
    29    12  2025    -9     0     261.1     0.0      0.0    0.0    0.0    0.0      0.0      0.0   -9.90      0.3      0.1     29      0.0      0.0   100      0.3     0.1      29     17.6    2.28     -9     -9     -9      0     -9     0.0     0.0      0    -9.00      0.0      0.0      0.0   100    35.1    20.220    48.0    9.706   10.784     100       55.01    0.000    0.000     261.1    261.1    2.28   259.0     965.7     266.5     199.3      98.7      98.3      56.5    0.000     0.000     0.000     0.000     0.000    2.28     0.00    0.00      0   -9.90   -9.00        4.1       11.7       11.7       11.7       11.7       11.7       11.7       11.7       11.7       11.7       11.7       11.7        0.0        0.0        0.0        0.0        0.0        0.0        0.0        0.0        0.0        0.0        0.0        0.0      0.0       0.3      21.2      25.8      30.5    424.57
    30    12  2025    -9     0     261.0     0.0      0.0    0.0    0.0    0.0      0.0      0.0   -9.90      0.3      0.1     28      0.0      0.0   100      0.3     0.1      28     17.8    2.28     -9     -9     -9      0     -9     0.0     0.0      0    -9.00      0.0      0.0      0.0   100    35.1    20.220    48.0    9.706   10.784     100       55.01    0.000    0.000     261.0    261.0    2.28   258.9     965.7     266.5     199.3      98.8      98.3      56.5    0.000     0.000     0.000     0.000     0.000    2.28     0.00    0.00      0   -9.90   -9.00        4.0       11.7       11.7       11.7       11.7       11.7       11.7       11.7       11.7       11.7       11.7       11.7        0.0        0.0        0.0        0.0        0.0        0.0        0.0        0.0        0.0        0.0        0.0        0.0      0.0       0.3      21.6      26.3      31.0    424.57
    31    12  2025    -9     0     260.9     0.0      0.0    0.0    0.0    0.0      0.0      0.0   -9.90      0.4      0.1     27      0.0      0.0   100      0.4     0.1      27     17.6    2.28     -9     -9     -9      0     -9     0.0     0.0      0    -9.00      0.0      0.0      0.0   100    35.1    20.220    48.0    9.706   10.784     100       55.01    0.000    0.000     260.9    260.9    2.28   258.8     965.7     266.5     199.3      98.8      98.3      56.5    0.000     0.000     0.000     0.000     0.000    2.28     0.00    0.00      0   -9.90   -9.00        3.9       11.7       11.7       11.7       11.7       11.7       11.7       11.7       11.7       11.7       11.7       11.7        0.0        0.0        0.0        0.0        0.0        0.0        0.0        0.0        0.0        0.0        0.0        0.0      0.0       0.3      21.2      26.2      31.2    424.57
