AquaCrop 7.1 (August 2023) - Output created on (date) : 29-01-2026   at (time) : 01:20:30

   Run:   1
   Day Month  Year   DAP Stage   WC(2.30)   Rain     Irri   Surf   Infilt   RO    Drain       CR    Zgwt       Ex       E     E/Ex     Trx       Tr  Tr/Trx    ETx      ET  ET/ETx      GD       Z     StExp  StSto  StSen StSalt StWeed   CC      CCw     StTr  Kc(Tr)     Trx       Tr      TrW  Tr/Trx   WP    Biomass     HI    Y(dry)  Y(fresh)  Brelative    WPet      Bin     Bout  WC(2.30) Wr(2.30)     Z       Wr    Wr(SAT)    Wr(FC)   Wr(exp)   Wr(sto)   Wr(sen)   Wr(PWP)    SaltIn    SaltOut   SaltUp   Salt(2.30)  SaltZ     Z       ECe    ECsw   StSalt  Zgwt    ECgw       WC01       WC 2       WC 3       WC 4       WC 5       WC 6       WC 7       WC 8       WC 9       WC10       WC11       WC12      ECe01      ECe 2      ECe 3      ECe 4      ECe 5      ECe 6      ECe 7      ECe 8      ECe 9      ECe10      ECe11      ECe12     Rain       ETo      Tmin      Tavg      Tmax      CO2
                                      mm      mm       mm     mm     mm     mm       mm       mm      m        mm       mm     %        mm       mm    %        mm      mm       %  degC-day     m       %      %      %      %      %      %       %       %       -        mm       mm       mm    %     g/m2    ton/ha      %    ton/ha   ton/ha       %       kg/m3   ton/ha   ton/ha      mm       mm       m       mm        mm        mm        mm        mm        mm         mm    ton/ha    ton/ha    ton/ha    ton/ha    ton/ha     m      dS/m    dS/m      %     m      dS/m       0.05       0.18       0.33       0.48       0.63       0.80       1.00       1.20       1.43       1.68       1.93       2.18       0.05       0.18       0.33       0.48       0.63       0.80       1.00       1.20       1.43       1.68       1.93       2.18       mm        mm     degC      degC      degC       ppm
     1     7  2024     1     1     268.4     0.1      0.0    0.0    0.1    0.0      0.0      0.0   -9.90      0.3      0.3     99      0.0      0.0   100      0.3     0.3      99     20.4    0.30     -9     -9     -9      0     -9     0.0     0.0      0    -9.00      0.0      0.0      0.0   100     0.0     0.000    -9.9    0.000    0.000      -9        0.00    0.000    0.000     268.4    268.4    0.30    34.4     125.1      34.6      30.7      12.4      15.5       6.9    0.000     0.000     0.000     0.000     0.000    0.30     0.00    0.00      0   -9.90   -9.00       11.5       11.7       11.7       11.7       11.7       11.7       11.7       11.7       11.7       11.7       11.7       11.7        0.0        0.0        0.0        0.0        0.0        0.0        0.0        0.0        0.0        0.0        0.0        0.0      0.1       0.3      26.8      29.8      32.7    422.57
     2     7  2024     2     1     269.1     0.9      0.0    0.0    0.9    0.0      0.0      0.0   -9.90      0.2      0.2    100      0.0      0.0   100      0.2     0.2     100     19.3    0.30     -9     -9     -9      0     -9     0.0     0.0      0    -9.00      0.0      0.0      0.0   100     0.0     0.000    -9.9    0.000    0.000      -9        0.00    0.000    0.000     269.1    269.1    0.30    35.1     125.1      34.6      30.7      12.4      15.5       6.9    0.000     0.000     0.000     0.000     0.000    0.30     0.00    0.00      0   -9.90   -9.00       12.2       11.7       11.7       11.7       11.7       11.7       11.7       11.7       11.7       11.7       11.7       11.7        0.0        0.0        0.0        0.0        0.0        0.0        0.0        0.0        0.0        0.0        0.0        0.0      0.9       0.2      25.9      27.3      28.7    422.57
     3     7  2024     3     1     283.1    15.2      0.0    0.0   14.4    0.8      0.2      0.0   -9.90      0.3      0.3    100      0.0      0.0   100      0.3     0.3     100     19.9    0.30     -9     -9     -9      0     -9     0.0     0.0      0    -9.00      0.0      0.0      0.0   100     0.0     0.000    -9.9    0.000    0.000      -9        0.00    0.000    0.000     283.1    283.1    0.30    48.9     125.1      34.6      30.7      12.4      15.5       6.9    0.000     0.000     0.000     0.000     0.000    0.30     0.00    0.00      0   -9.90   -9.00       26.1       11.7       11.7       11.7       11.7       11.7       11.7       11.7       11.7       11.7       11.7       11.7        0.0        0.0        0.0        0.0        0.0        0.0        0.0        0.0        0.0        0.0        0.0        0.0     15.2       0.2      25.7      28.5      31.3    422.57
     4     7  2024     4     1     278.8     1.6      0.0    0.0    1.6    0.0      5.6      0.0   -9.90      0.3      0.3    100      0.0      0.0   100      0.3     0.3     100     20.3    0.30     -9     -9     -9      0     -9     0.0     0.0      0    -9.00      0.0      0.0      0.0   100     0.0     0.000    -9.9    0.000    0.000      -9        0.00    0.000    0.000     278.8    278.8    0.30    38.2     125.1      34.6      30.7      12.4      15.5       6.9    0.000     0.000     0.000     0.000     0.000    0.30     0.00    0.00      0   -9.90   -9.00       13.3       12.6       13.0       12.5       12.4       12.1       12.0       11.9       11.9       11.8       11.8       11.8        0.0        0.0        0.0        0.0        0.0        0.0        0.0        0.0        0.0        0.0        0.0        0.0      1.6       0.2      26.5      29.0      31.6    422.57
     5     7  2024     5     1     273.3     0.9      0.0    0.0    0.9    0.0      6.1      0.0   -9.90      0.3      0.3    100      0.0      0.0   100      0.3     0.3     100     20.1    0.32     -9     -9     -9      0     -9     0.0     0.0      0    -9.00      0.0      0.0      0.0   100     0.0     0.000    -9.9    0.000    0.000      -9        0.00    0.000    0.000     273.3    273.3    0.32    38.2     133.5      36.9      32.8      13.3      16.5       7.4    0.000     0.000     0.000     0.000     0.000    0.32     0.00    0.00      0   -9.90   -9.00       12.5       11.9       12.0       12.0       12.0       11.9       11.9       11.9       11.8       11.8       11.8       11.8        0.0        0.0        0.0        0.0        0.0        0.0        0.0        0.0        0.0        0.0        0.0        0.0      0.9       0.2      26.2      28.6      31.1    422.57
     6     7  2024     6     1     270.1     0.3      0.0    0.0    0.3    0.0      3.2      0.0   -9.90      0.3      0.3    100      0.0      0.0   100      0.3     0.3     100     19.8    0.36     -9     -9     -9      0     -9     0.0     0.0      0    -9.00      0.0      0.0      0.0   100     0.0     0.000    -9.9    0.000    0.000      -9        0.00    0.000    0.000     270.1    270.1    0.36    41.9     150.6      41.6      37.0      15.1      18.7       8.4    0.000     0.000     0.000     0.000     0.000    0.36     0.00    0.00      0   -9.90   -9.00       11.7       11.8       11.8       11.8       11.8       11.8       11.8       11.8       11.8       11.8       11.7       11.7        0.0        0.0        0.0        0.0        0.0        0.0        0.0        0.0        0.0        0.0        0.0        0.0      0.3       0.3      25.6      29.4      33.2    422.57
     7     7  2024     7     2     277.5     8.8      0.0    0.0    8.7    0.1      1.1      0.0   -9.90      0.2      0.2    100      0.0      0.0   100      0.2     0.2     100     18.6    0.40     -9      0      0      0      0     0.4     0.4      0     0.01      0.0      0.0      0.0   100    35.0     0.003    -9.9    0.000    0.000     100        0.00    0.000    0.000     277.5    277.5    0.40    54.5     166.4      46.0      34.3      16.6      16.6       9.3    0.000     0.000     0.000     0.000     0.000    0.40     0.00    0.00      0   -9.90   -9.00       20.3       11.7       11.7       11.7       11.7       11.7       11.7       11.7       11.7       11.7       11.7       11.7        0.0        0.0        0.0        0.0        0.0        0.0        0.0        0.0        0.0        0.0        0.0        0.0      8.8       0.2      24.2      26.6      29.0    422.57
     8     7  2024     8     2     289.9    17.0      0.0    0.0   15.9    1.1      3.2      0.0   -9.90      0.2      0.2    100      0.0      0.0   100      0.2     0.2     100     17.8    0.43     -9      0      0      0      0     0.5     0.5      0     0.01      0.0      0.0      0.0   100    35.0     0.006    -9.9    0.000    0.000     100        0.00    0.000    0.000     289.9    289.9    0.43    68.9     181.2      50.1      37.2      18.1      18.1      10.2    0.000     0.000     0.000     0.000     0.000    0.43     0.00    0.00      0   -9.90   -9.00       28.6       12.3       12.5       12.1       12.0       11.9       11.8       11.8       11.8       11.8       11.8       11.8        0.0        0.0        0.0        0.0        0.0        0.0        0.0        0.0        0.0        0.0        0.0        0.0     17.0       0.2      24.4      25.8      27.3    422.57
     9     7  2024     9     2     322.6    61.2      0.0    0.0   42.3   18.9      9.5      0.0   -9.90      0.2      0.2    100      0.0      0.0   100      0.2     0.2     100     19.9    0.47      0      0      0      0      0     0.6     0.6      0     0.01      0.0      0.0      0.0   100    35.0     0.010    -9.9    0.000    0.000     100        0.00    0.000    0.000     322.6    322.6    0.47   101.7     195.4      54.0      40.3      19.6      19.6      11.0    0.000     0.000     0.000     0.000     0.000    0.47     0.00    0.00      0   -9.90   -9.00       42.1       21.8       13.3       12.7       12.4       12.2       12.1       12.0       12.0       11.9       11.9       11.8        0.0        0.0        0.0        0.0        0.0        0.0        0.0        0.0        0.0        0.0        0.0        0.0     61.2       0.2      25.8      28.0      30.3    422.57
    10     7  2024    10     2     292.6     0.1      0.0    0.0    0.1    0.0     29.7      0.0   -9.90      0.3      0.3     99      0.0      0.0   100      0.3     0.3      99     19.3    0.50      0      0      0      0      0     0.7     0.7      0     0.01      0.0      0.0      0.0   100    35.0     0.014    -9.9    0.000    0.000     100        0.00    0.000    0.000     292.6    292.6    0.50    64.9     209.1      57.8      43.2      21.1      21.1      11.9    0.000     0.000     0.000     0.000     0.000    0.50     0.00    0.00      0   -9.90   -9.00       11.5       11.7       14.9       14.1       13.6       13.2       12.8       12.6       12.5       12.3       12.2       12.1        0.0        0.0        0.0        0.0        0.0        0.0        0.0        0.0        0.0        0.0        0.0        0.0      0.1       0.3      24.6      28.0      31.4    422.57
    11     7  2024    11     2     281.4     5.7      0.0    0.0    5.7    0.0     16.7      0.0   -9.90      0.3      0.3    100      0.0      0.0   100      0.3     0.3     100     19.6    0.53      0      0      0      0      0     0.8     0.8      0     0.01      0.0      0.0      0.0   100    35.0     0.019    -9.9    0.000    0.000     100        0.00    0.000    0.000     281.4    281.4    0.53    68.4     222.3      61.4      45.8      22.4      22.4      12.6    0.000     0.000     0.000     0.000     0.000    0.53     0.00    0.00      0   -9.90   -9.00       17.0       11.7       12.4       12.3       12.1       12.1       12.1       12.0       12.0       12.0       12.0       11.9        0.0        0.0        0.0        0.0        0.0        0.0        0.0        0.0        0.0        0.0        0.0        0.0      5.7       0.2      25.1      27.8      30.6    422.57
    12     7  2024    12     2     276.2     2.8      0.0    0.0    2.8    0.0      7.8      0.0   -9.90      0.2      0.2    100      0.0      0.0   100      0.2     0.2     100     19.6    0.56      0      0      0      0      0     1.0     1.0      0     0.02      0.0      0.0      0.0   100    35.0     0.026    -9.9    0.000    0.000     100        0.00    0.000    0.000     276.2    276.2    0.56    69.8     235.2      65.0      48.4      23.6      23.6      13.4    0.000     0.000     0.000     0.000     0.000    0.56     0.00    0.00      0   -9.90   -9.00       14.8       12.1       12.2       12.0       12.0       11.9       11.9       11.9       11.8       11.8       11.8       11.8        0.0        0.0        0.0        0.0        0.0        0.0        0.0        0.0        0.0        0.0        0.0        0.0      2.8       0.2      25.6      27.6      29.5    422.57
    13     7  2024    13     2     277.2     5.5      0.0    0.0    5.5    0.0      4.2      0.0   -9.90      0.2      0.2    100      0.0      0.0   100      0.2     0.2     100     19.7    0.59      0      0      0      0      0     1.2     1.2      0     0.02      0.0      0.0      0.0   100    35.0     0.033    -9.9    0.000    0.000     100        0.00    0.000    0.000     277.2    277.2    0.59    75.4     247.7      68.4      51.0      24.9      24.9      14.1    0.000     0.000     0.000     0.000     0.000    0.59     0.00    0.00      0   -9.90   -9.00       17.4       12.0       12.0       11.9       11.9       11.8       11.8       11.8       11.8       11.8       11.8       11.8        0.0        0.0        0.0        0.0        0.0        0.0        0.0        0.0        0.0        0.0        0.0        0.0      5.5       0.2      25.5      27.7      30.0    422.57
    14     7  2024    14     2     285.1    12.5      0.0    0.0   12.1    0.4      4.0      0.0   -9.90      0.2      0.2    100      0.0      0.0   100      0.3     0.3     100     19.4    0.62      0      0      0      0      0     1.4     1.4      0     0.02      0.0      0.0      0.0   100    35.0     0.041    -9.9    0.000    0.000     100        0.00    0.000    0.000     285.1    285.1    0.62    86.5     259.9      71.8      53.6      26.2      26.2      14.8    0.000     0.000     0.000     0.000     0.000    0.62     0.00    0.00      0   -9.90   -9.00       24.4       12.2       12.3       12.0       11.9       11.9       11.8       11.8       11.8       11.8       11.8       11.8        0.0        0.0        0.0        0.0        0.0        0.0        0.0        0.0        0.0        0.0        0.0        0.0     12.5       0.2      24.9      27.4      29.9    422.57
    15     7  2024    15     2     286.5     9.0      0.0    0.0    8.9    0.1      7.3      0.0   -9.90      0.2      0.2    100      0.0      0.0   100      0.2     0.2     100     19.8    0.65      0      0      0      0      0     1.6     1.6      0     0.03      0.0      0.0      0.0   100    35.0     0.051    -9.9    0.000    0.000     100        0.00    0.000    0.000     286.5    286.5    0.65    89.5     271.9      75.1      56.0      27.4      27.4      15.6    0.000     0.000     0.000     0.000     0.000    0.65     0.00    0.00      0   -9.90   -9.00       21.6       12.6       12.9       12.4       12.2       12.1       12.0       11.9       11.9       11.9       11.8       11.8        0.0        0.0        0.0        0.0        0.0        0.0        0.0        0.0        0.0        0.0        0.0        0.0      9.0       0.2      25.9      27.8      29.7    422.57
    16     7  2024    16     2     283.8     6.5      0.0    0.0    6.5    0.0      9.0      0.0   -9.90      0.2      0.2    100      0.0      0.0   100      0.2     0.2     100     20.0    0.67      0      0      0      0      0     1.9     1.9      0     0.03      0.0      0.0      0.0   100    35.0     0.063    -9.9    0.000    0.000     100        0.00    0.000    0.000     283.8    283.8    0.67    89.7     283.6      78.3      58.5      28.6      28.6      16.2    0.000     0.000     0.000     0.000     0.000    0.67     0.00    0.00      0   -9.90   -9.00       18.9       12.5       12.7       12.4       12.2       12.1       12.0       12.0       11.9       11.9       11.9       11.8        0.0        0.0        0.0        0.0        0.0        0.0        0.0        0.0        0.0        0.0        0.0        0.0      6.5       0.2      26.1      28.3      30.5    422.57
    17     7  2024    17     2     283.4     7.8      0.0    0.0    7.8    0.1      7.9      0.0   -9.90      0.2      0.2    100      0.0      0.0   100      0.2     0.2     100     19.8    0.70      0      0      0      0      0     2.3     2.3      0     0.04      0.0      0.0      0.0   100    35.0     0.077    -9.9    0.000    0.000     100        0.00    0.000    0.000     283.4    283.4    0.70    93.3     295.2      81.5      60.8      29.8      29.8      16.9    0.000     0.000     0.000     0.000     0.000    0.70     0.00    0.00      0   -9.90   -9.00       20.2       12.3       12.5       12.2       12.1       12.0       12.0       11.9       11.9       11.9       11.8       11.8        0.0        0.0        0.0        0.0        0.0        0.0        0.0        0.0        0.0        0.0        0.0        0.0      7.8       0.2      25.8      27.8      29.7    422.57
    18     7  2024    18     2     290.1    14.9      0.0    0.0   14.2    0.8      7.3      0.0   -9.90      0.2      0.2    100      0.0      0.0   100      0.2     0.2     100     18.2    0.73      0      0      0      0      0     2.7     2.7      0     0.05      0.0      0.0      0.0   100    35.0     0.094    -9.9    0.000    0.000     100        0.00    0.000    0.000     290.1    290.1    0.73   103.3     306.5      84.6      63.1      30.9      30.9      17.6    0.000     0.000     0.000     0.000     0.000    0.73     0.00    0.00      0   -9.90   -9.00       26.9       12.4       12.6       12.2       12.1       12.0       11.9       11.9       11.9       11.8       11.8       11.8        0.0        0.0        0.0        0.0        0.0        0.0        0.0        0.0        0.0        0.0        0.0        0.0     14.9       0.2      24.7      26.2      27.7    422.57
    19     7  2024    19     2     294.0    15.0      0.0    0.0   14.2    0.8     10.1      0.0   -9.90      0.3      0.3    100      0.0      0.0   100      0.3     0.3     100     19.3    0.75      0      0      0      0      0     3.2     3.2      0     0.06      0.0      0.0      0.0   100    35.0     0.113    -9.9    0.000    0.000     100        0.00    0.000    0.000     294.0    294.0    0.75   109.0     317.7      87.7      65.6      32.2      32.2      18.3    0.000     0.000     0.000     0.000     0.000    0.75     0.00    0.00      0   -9.90   -9.00       27.1       12.7       13.1       12.6       12.3       12.2       12.1       12.0       12.0       11.9       11.9       11.9        0.0        0.0        0.0        0.0        0.0        0.0        0.0        0.0        0.0        0.0        0.0        0.0     15.0       0.3      24.6      27.8      31.1    422.57
    20     7  2024    20     2     286.6     5.9      0.0    0.0    5.9    0.0     13.0      0.0   -9.90      0.2      0.2    100      0.0      0.0   100      0.3     0.3     100     20.1    0.78      0      0      0      0      0     3.7     3.7      0     0.06      0.0      0.0      0.0   100    35.0     0.136    -9.9    0.000    0.000     100        0.00    0.000    0.000     286.6    286.6    0.78   104.0     328.7      90.8      67.8      33.3      33.3      18.9    0.000     0.000     0.000     0.000     0.000    0.78     0.00    0.00      0   -9.90   -9.00       18.2       12.7       13.2       12.7       12.4       12.3       12.1       12.1       12.0       12.0       11.9       11.9        0.0        0.0        0.0        0.0        0.0        0.0        0.0        0.0        0.0        0.0        0.0        0.0      5.9       0.2      26.2      28.8      31.3    422.57
    21     7  2024    21     2     276.4     0.5      0.0    0.0    0.5    0.0     10.3      0.0   -9.90      0.3      0.3    100      0.0      0.0   100      0.3     0.3     100     20.1    0.81      0      0      0      0      0     4.4     4.4      0     0.08      0.0      0.0      0.0   100    35.0     0.163    -9.9    0.000    0.000     100        0.00    0.000    0.000     276.4    276.4    0.81    98.1     339.6      93.8      70.1      34.4      34.4      19.5    0.000     0.000     0.000     0.000     0.000    0.81     0.00    0.00      0   -9.90   -9.00       12.2       12.3       12.4       12.3       12.1       12.1       12.0       12.0       11.9       11.9       11.9       11.9        0.0        0.0        0.0        0.0        0.0        0.0        0.0        0.0        0.0        0.0        0.0        0.0      0.5       0.2      26.2      29.0      31.9    422.57
    22     7  2024    22     2     270.9     0.1      0.0    0.0    0.1    0.0      5.3      0.0   -9.90      0.2      0.2    100      0.0      0.0   100      0.3     0.3     100     20.3    0.83      0      0      0      0      0     5.2     5.2      0     0.09      0.0      0.0      0.0   100    35.0     0.194    -9.9    0.000    0.000     100        0.00    0.000    0.000     270.9    270.9    0.83    97.6     350.3      96.7      72.3      35.5      35.5      20.2    0.000     0.000     0.000     0.000     0.000    0.83     0.00    0.00      0   -9.90   -9.00       11.6       11.8       11.9       11.9       11.8       11.8       11.8       11.8       11.8       11.8       11.8       11.8        0.0        0.0        0.0        0.0        0.0        0.0        0.0        0.0        0.0        0.0        0.0        0.0      0.1       0.2      26.7      29.1      31.5    422.57
    23     7  2024    23     2     272.1     3.2      0.0    0.0    3.2    0.0      1.8      0.0   -9.90      0.2      0.2    100      0.0      0.0   100      0.2     0.2     100     19.9    0.86      0      0      0      0      0     6.1     6.1      0     0.10      0.0      0.0      0.0   100    35.0     0.231    -9.9    0.000    0.000     100        0.00    0.000    0.000     272.1    272.1    0.86   102.8     360.9      99.7      74.3      36.5      36.5      20.8    0.000     0.000     0.000     0.000     0.000    0.86     0.00    0.00      0   -9.90   -9.00       14.6       11.7       11.7       11.7       11.7       11.7       11.7       11.7       11.7       11.7       11.7       11.7        0.0        0.0        0.0        0.0        0.0        0.0        0.0        0.0        0.0        0.0        0.0        0.0      3.2       0.2      26.2      27.9      29.5    422.57
    24     7  2024    24     2     276.7     6.2      0.0    0.0    6.2    0.0      1.4      0.0   -9.90      0.2      0.2    100      0.0      0.0   100      0.2     0.2     100     18.9    0.88      0      0      0      0      0     7.2     7.2      0     0.12      0.0      0.0      0.0   100    35.0     0.274    -9.9    0.000    0.000     100        0.00    0.000    0.000     276.7    276.7    0.88   110.2     371.4     102.5      76.4      37.5      37.5      21.4    0.000     0.000     0.000     0.000     0.000    0.88     0.00    0.00      0   -9.90   -9.00       18.2       11.9       12.0       11.8       11.8       11.8       11.8       11.7       11.7       11.7       11.7       11.7        0.0        0.0        0.0        0.0        0.0        0.0        0.0        0.0        0.0        0.0        0.0        0.0      6.2       0.2      25.6      26.9      28.2    422.57
    25     7  2024    25     2     306.0    41.9      0.0    0.0   32.8    9.2      3.3      0.0   -9.90      0.1      0.1    100      0.0      0.0   100      0.1     0.1     100     18.0    0.91      0      0      0      0      0     8.5     8.5      0     0.14      0.0      0.0      0.0   100    35.0     0.324    -9.9    0.000    0.000     100        0.00    0.000    0.000     306.0    306.0    0.91   141.6     381.7     105.4      78.4      38.5      38.5      22.0    0.000     0.000     0.000     0.000     0.000    0.91     0.00    0.00      0   -9.90   -9.00       42.2       14.4       12.3       12.1       11.9       11.9       11.9       11.8       11.8       11.8       11.8       11.8        0.0        0.0        0.0        0.0        0.0        0.0        0.0        0.0        0.0        0.0        0.0        0.0     41.9       0.1      25.2      26.0      26.8    422.57
    26     7  2024    26     2     339.1    86.2      0.0    0.0   51.8   34.4     18.5      0.0   -9.90      0.2      0.2    100      0.0      0.0   100      0.2     0.2     100     19.3    0.93      0      0      0      0      0    10.0    10.0      0     0.17      0.0      0.0      0.0   100    35.0     0.383    -9.9    0.000    0.000     100        0.00    0.000    0.000     339.1    339.1    0.93   172.5     392.0     108.2      80.8      39.7      39.7      22.6    0.000     0.000     0.000     0.000     0.000    0.93     0.00    0.00      0   -9.90   -9.00       42.1       27.4       14.5       13.6       13.1       12.7       12.5       12.3       12.2       12.1       12.0       12.0        0.0        0.0        0.0        0.0        0.0        0.0        0.0        0.0        0.0        0.0        0.0        0.0     86.2       0.2      25.1      27.3      29.5    422.57
    27     7  2024    27     2     302.8     5.1      0.0    0.0    5.1    0.0     41.2      0.0   -9.90      0.2      0.2    100      0.1      0.1   100      0.3     0.3     100     19.8    0.95      0      0      0      0      0    11.8    11.8      0     0.20      0.1      0.1      0.1   100    35.0     0.452    -9.9    0.000    0.000     100        0.00    0.000    0.000     302.8    302.8    0.95   133.0     402.2     111.0      83.1      40.8      40.8      23.2    0.000     0.000     0.000     0.000     0.000    0.95     0.00    0.00      0   -9.90   -9.00       16.7       11.7       15.1       14.5       13.9       13.5       13.1       12.9       12.7       12.5       12.4       12.3        0.0        0.0        0.0        0.0        0.0        0.0        0.0        0.0        0.0        0.0        0.0        0.0      5.1       0.3      25.5      28.8      32.0    422.57
    28     7  2024    28     2     279.5     0.4      0.0    0.0    0.4    0.0     23.4      0.0   -9.90      0.2      0.2    100      0.1      0.1   100      0.2     0.2     100     20.3    0.98      0      0      0      0      0    14.0    14.0      0     0.23      0.1      0.1      0.1   100    35.0     0.532    -9.9    0.000    0.000     100        0.00    0.000    0.000     279.5    279.5    0.98   119.3     412.2     113.8      85.1      41.8      41.8      23.8    0.000     0.000     0.000     0.000     0.000    0.98     0.00    0.00      0   -9.90   -9.00       12.1       12.1       12.5       12.3       12.3       12.3       12.2       12.2       12.1       12.1       12.1       12.0        0.0        0.0        0.0        0.0        0.0        0.0        0.0        0.0        0.0        0.0        0.0        0.0      0.4       0.2      26.5      28.9      31.3    422.57
    29     7  2024    29     2     271.3     0.1      0.0    0.0    0.1    0.0      8.1      0.0   -9.90      0.2      0.2    100      0.1      0.1   100      0.2     0.2     100     20.2    1.00      0      0      0      0      0    16.5    16.5      0     0.27      0.1      0.1      0.1   100    35.0     0.626    -9.9    0.000    0.000     100        0.00    0.000    0.000     271.3    271.3    1.00   117.6     422.2     116.6      87.1      42.8      42.8      24.4    0.000     0.000     0.000     0.000     0.000    1.00     0.00    0.00      0   -9.90   -9.00       11.6       11.8       11.9       11.9       11.8       11.8       11.8       11.8       11.8       11.8       11.8       11.8        0.0        0.0        0.0        0.0        0.0        0.0        0.0        0.0        0.0        0.0        0.0        0.0      0.1       0.2      26.5      28.7      30.9    422.57
    30     7  2024    30     2     271.8     2.9      0.0    0.0    2.9    0.0      2.2      0.0   -9.90      0.2      0.2    100      0.1      0.1   100      0.2     0.2     100     20.1    1.02      0      0      0      0      0    19.4    19.4      0     0.31      0.1      0.1      0.1   100    35.0     0.734    -9.9    0.000    0.000     100        0.00    0.000    0.000     271.8    271.8    1.02   122.1     432.0     119.3      89.1      43.8      43.8      25.0    0.000     0.000     0.000     0.000     0.000    1.02     0.00    0.00      0   -9.90   -9.00       14.2       11.7       11.7       11.7       11.7       11.7       11.7       11.7       11.7       11.7       11.7       11.7        0.0        0.0        0.0        0.0        0.0        0.0        0.0        0.0        0.0        0.0        0.0        0.0      2.9       0.2      26.3      28.5      30.8    422.57
    31     7  2024    31     2     275.5     5.3      0.0    0.0    5.3    0.0      1.3      0.0   -9.90      0.2      0.2    100      0.1      0.1   100      0.2     0.2     100     19.9    1.05      0      0      0      0      0    22.9    22.9      0     0.36      0.1      0.1      0.1   100    35.0     0.859    -9.9    0.000    0.000     100        0.00    0.000    0.000     275.5    275.5    1.05   128.6     441.8     122.0      91.1      44.8      44.8      25.6    0.000     0.000     0.000     0.000     0.000    1.05     0.00    0.00      0   -9.90   -9.00       17.2       11.9       11.9       11.8       11.8       11.8       11.7       11.7       11.7       11.7       11.7       11.7        0.0        0.0        0.0        0.0        0.0        0.0        0.0        0.0        0.0        0.0        0.0        0.0      5.3       0.2      25.8      27.9      30.0    422.57
     1     8  2024    32     2     282.0     9.7      0.0    0.0    9.5    0.2      2.8      0.0   -9.90      0.2      0.2    100      0.1      0.1   100      0.2     0.2     100     20.2    1.07      0      0      0      0      0    27.0    27.0      0     0.41      0.1      0.1      0.1   100    35.0     1.003    -9.9    0.000    0.000     100        0.00    0.000    0.000     282.0    282.0    1.07   137.3     451.5     124.7      93.2      45.8      45.8      26.1    0.000     0.000     0.000     0.000     0.000    1.07     0.00    0.00      0   -9.90   -9.00       21.8       12.1       12.2       12.0       11.9       11.9       11.8       11.8       11.8       11.8       11.8       11.7        0.0        0.0        0.0        0.0        0.0        0.0        0.0        0.0        0.0        0.0        0.0        0.0      9.7       0.2      26.4      28.7      31.0    422.57
     2     8  2024    33     2     276.4     0.6      0.0    0.0    0.6    0.0      5.9      0.0   -9.90      0.1      0.1    100      0.1      0.1   100      0.3     0.3     100     19.9    1.09      0      0      0      0      0    31.8    31.8      0     0.47      0.1      0.1      0.1   100    35.0     1.168    -9.9    0.000    0.000     100        0.00    0.000    0.000     276.4    276.4    1.09   133.4     461.2     127.3      95.2      46.8      46.8      26.7    0.000     0.000     0.000     0.000     0.000    1.09     0.00    0.00      0   -9.90   -9.00       12.4       12.5       12.7       12.3       12.2       12.0       12.0       11.9       11.9       11.8       11.8       11.8        0.0        0.0        0.0        0.0        0.0        0.0        0.0        0.0        0.0        0.0        0.0        0.0      0.6       0.2      25.7      28.6      31.5    422.57
     3     8  2024    34     2     271.2     0.1      0.0    0.0    0.1    0.0      4.9      0.0   -9.90      0.1      0.1    100      0.1      0.1   100      0.3     0.3     100     19.6    1.12      0      0      0      0      0    37.5    37.5      0     0.54      0.1      0.1      0.1   100    35.0     1.357    -9.9    0.000    0.000     100        0.00    0.000    0.000     271.2    271.2    1.12   131.5     470.7     130.0      97.3      47.9      47.9      27.3    0.000     0.000     0.000     0.000     0.000    1.12     0.00    0.00      0   -9.90   -9.00       11.5       11.8       11.9       11.9       11.9       11.9       11.8       11.8       11.8       11.8       11.8       11.8        0.0        0.0        0.0        0.0        0.0        0.0        0.0        0.0        0.0        0.0        0.0        0.0      0.1       0.3      25.1      28.4      31.6    422.57
     4     8  2024    35     2     287.7    20.2      0.0    0.0   18.6    1.6      2.0      0.0   -9.90      0.1      0.1    100      0.1      0.1   100      0.1     0.1     100     18.0    1.14      0      0      0      0      0    44.3    44.3      0     0.61      0.1      0.1      0.1   100    35.0     1.571    -9.9    0.000    0.000     100        0.00    0.000    0.000     287.7    287.7    1.14   151.3     480.2     132.6      98.7      48.5      48.5      27.8    0.000     0.000     0.000     0.000     0.000    1.14     0.00    0.00      0   -9.90   -9.00       30.3       11.7       11.8       11.7       11.7       11.7       11.7       11.7       11.7       11.7       11.7       11.7        0.0        0.0        0.0        0.0        0.0        0.0        0.0        0.0        0.0        0.0        0.0        0.0     20.2       0.1      25.1      26.0      27.0    422.57
     5     8  2024    36     2     305.5    30.8      0.0    0.0   26.0    4.8      7.9      0.0   -9.90      0.1      0.1    100      0.1      0.1   100      0.2     0.2     100     18.3    1.16      0      0      0      0      0    51.8    51.8      0     0.69      0.1      0.1      0.1   100    35.0     1.812    -9.9    0.000    0.000     100        0.00    0.000    0.000     305.5    305.5    1.16   169.9     489.6     135.2     100.8      49.6      49.6      28.4    0.000     0.000     0.000     0.000     0.000    1.16     0.00    0.00      0   -9.90   -9.00       38.5       12.8       13.3       12.6       12.3       12.2       12.1       12.0       11.9       11.9       11.9       11.8        0.0        0.0        0.0        0.0        0.0        0.0        0.0        0.0        0.0        0.0        0.0        0.0     30.8       0.2      24.9      26.3      27.7    422.57
     6     8  2024    37     2     305.1    20.4      0.0    0.0   18.6    1.8     18.7      0.0   -9.90      0.1      0.1    100      0.2      0.2   100      0.2     0.2     100     19.6    1.18      0      0      0      0      0    58.4    58.4      0     0.75      0.2      0.2      0.2   100    35.0     2.075    -9.9    0.000    0.000     100        0.00    0.000    0.000     305.1    305.1    1.18   169.9     499.0     137.8     103.0      50.7      50.7      28.9    0.000     0.000     0.000     0.000     0.000    1.18     0.00    0.00      0   -9.90   -9.00       30.9       12.8       14.1       13.3       12.9       12.6       12.4       12.3       12.2       12.1       12.0       12.0        0.0        0.0        0.0        0.0        0.0        0.0        0.0        0.0        0.0        0.0        0.0        0.0     20.4       0.2      25.2      27.6      29.9    422.57
     7     8  2024    38     2     286.2     1.8      0.0    0.0    1.8    0.0     20.4      0.0   -9.90      0.1      0.1    100      0.2      0.2   100      0.2     0.2     100     19.3    1.20      0      0      0      0      0    64.0    64.0      0     0.80      0.2      0.2      0.2   100    35.0     2.354    -9.9    0.000    0.000     100        0.00    0.000    0.000     286.2    286.2    1.20   153.5     508.3     140.3     104.8      51.6      51.6      29.5    0.000     0.000     0.000     0.000     0.000    1.20     0.00    0.00      0   -9.90   -9.00       13.5       12.8       13.5       13.0       12.7       12.5       12.3       12.2       12.2       12.1       12.1       12.0        0.0        0.0        0.0        0.0        0.0        0.0        0.0        0.0        0.0        0.0        0.0        0.0      1.8       0.2      25.3      27.3      29.4    422.57
     8     8  2024    39     2     282.4     8.1      0.0    0.0    8.0    0.1     11.6      0.0   -9.90      0.0      0.0    100      0.2      0.2   100      0.2     0.2     100     19.7    1.23      0      0      0      0      0    68.8    68.8      0     0.84      0.2      0.2      0.2   100    35.0     2.647    -9.9    0.000    0.000     100        0.00    0.000    0.000     282.4    282.4    1.23   154.5     517.5     142.9     106.8      52.6      52.6      30.0    0.000     0.000     0.000     0.000     0.000    1.23     0.00    0.00      0   -9.90   -9.00       19.8       12.0       12.1       12.1       12.1       12.0       12.0       12.0       11.9       11.9       11.9       11.9        0.0        0.0        0.0        0.0        0.0        0.0        0.0        0.0        0.0        0.0        0.0        0.0      8.1       0.2      25.4      27.9      30.5    422.57
     9     8  2024    40     2     281.7     6.7      0.0    0.0    6.7    0.0      7.1      0.0   -9.90      0.0      0.0    100      0.2      0.2   100      0.2     0.2     100     20.0    1.25      0      0      0      0      0    72.8    72.8      0     0.87      0.2      0.2      0.2   100    35.0     2.950    -9.9    0.000    0.000     100        0.00    0.000    0.000     281.7    281.7    1.25   157.2     526.7     145.4     108.7      53.5      53.5      30.6    0.000     0.000     0.000     0.000     0.000    1.25     0.00    0.00      0   -9.90   -9.00       19.1       12.3       12.5       12.2       12.0       12.0       11.9       11.9       11.9       11.8       11.8       11.8        0.0        0.0        0.0        0.0        0.0        0.0        0.0        0.0        0.0        0.0        0.0        0.0      6.7       0.2      26.0      28.3      30.7    422.57
    10     8  2024    41     2     278.4     3.5      0.0    0.0    3.5    0.0      6.6      0.0   -9.90      0.0      0.0    100      0.2      0.2   100      0.2     0.2     100     19.5    1.27      0      0      0      0      0    76.2    76.2      0     0.89      0.2      0.2      0.2   100    35.0     3.263    -9.9    0.000    0.000     100        0.00    0.000    0.000     278.4    278.4    1.27   156.4     535.8     147.9     110.4      54.3      54.3      31.1    0.000     0.000     0.000     0.000     0.000    1.27     0.00    0.00      0   -9.90   -9.00       15.5       12.3       12.5       12.2       12.1       12.0       11.9       11.9       11.9       11.8       11.8       11.8        0.0        0.0        0.0        0.0        0.0        0.0        0.0        0.0        0.0        0.0        0.0        0.0      3.5       0.2      25.8      27.5      29.2    422.57
    11     8  2024    42     2     281.7     9.0      0.0    0.0    8.8    0.1      5.3      0.0   -9.90      0.0      0.0    100      0.2      0.2   100      0.3     0.3     100     19.5    1.29      0      0      0      0      0    79.1    79.1      0     0.91      0.2      0.2      0.2   100    35.0     3.584    -9.9    0.000    0.000     100        0.00    0.000    0.000     281.7    281.7    1.29   162.6     544.9     150.4     112.5      55.4      55.4      31.6    0.000     0.000     0.000     0.000     0.000    1.29     0.00    0.00      0   -9.90   -9.00       20.9       12.1       12.1       12.0       11.9       11.9       11.9       11.8       11.8       11.8       11.8       11.8        0.0        0.0        0.0        0.0        0.0        0.0        0.0        0.0        0.0        0.0        0.0        0.0      9.0       0.2      25.1      27.7      30.4    422.57
    12     8  2024    43     2     308.3    42.2      0.0    0.0   32.9    9.3      6.1      0.0   -9.90      0.0      0.0    100      0.2      0.2   100      0.3     0.3     100     19.8    1.31      0      0      0      0      0    81.6    81.6      0     0.93      0.2      0.2      0.2   100    35.0     3.910    -9.9    0.000    0.000     100        0.00    0.000    0.000     308.3    308.3    1.31   191.3     553.9     152.9     114.4      56.3      56.3      32.2    0.000     0.000     0.000     0.000     0.000    1.31     0.00    0.00      0   -9.90   -9.00       42.0       14.7       12.6       12.2       12.1       12.0       12.0       11.9       11.8       11.8       11.8       11.8        0.0        0.0        0.0        0.0        0.0        0.0        0.0        0.0        0.0        0.0        0.0        0.0     42.2       0.2      25.5      28.4      31.2    422.57
    13     8  2024    44     2     288.8     0.9      0.0    0.0    0.9    0.0     20.1      0.0   -9.90      0.0      0.0    100      0.2      0.2   100      0.2     0.2     100     20.3    1.33      0      0      0      0      0    83.7    83.7      0     0.95      0.2      0.2      0.2   100    35.0     4.242    -9.9    0.000    0.000     100        0.00    0.000    0.000     288.8    288.8    1.33   171.7     562.8     155.4     116.1      57.2      57.2      32.7    0.000     0.000     0.000     0.000     0.000    1.33     0.00    0.00      0   -9.90   -9.00       12.4       12.6       14.5       13.6       13.1       12.8       12.5       12.3       12.2       12.1       12.1       12.0        0.0        0.0        0.0        0.0        0.0        0.0        0.0        0.0        0.0        0.0        0.0        0.0      0.9       0.2      26.6      28.8      31.0    422.57
    14     8  2024    45     2     276.4     1.2      0.0    0.0    1.2    0.0     13.4      0.0   -9.90      0.0      0.0    100      0.2      0.2   100      0.2     0.2     100     20.2    1.35      0      0      0      0      0    85.4    85.4      0     0.96      0.2      0.2      0.2   100    35.0     4.578    -9.9    0.000    0.000     100        0.00    0.000    0.000     276.4    276.4    1.35   163.5     571.7     157.8     118.0      58.1      58.1      33.2    0.000     0.000     0.000     0.000     0.000    1.35     0.00    0.00      0   -9.90   -9.00       12.8       11.8       12.3       12.1       12.1       12.1       12.0       12.0       12.0       11.9       11.9       11.9        0.0        0.0        0.0        0.0        0.0        0.0        0.0        0.0        0.0        0.0        0.0        0.0      1.2       0.2      26.4      28.8      31.1    422.57
    15     8  2024    46     2     273.6     2.8      0.0    0.0    2.8    0.0      5.4      0.0   -9.90      0.0      0.0    100      0.2      0.2   100      0.2     0.2     100     20.0    1.37      0      0      0      0      0    86.9    86.9      0     0.97      0.2      0.2      0.2   100    35.0     4.917    -9.9    0.000    0.000     100        0.00    0.000    0.000     273.6    273.6    1.37   164.5     580.6     160.3     119.8      59.0      59.0      33.8    0.000     0.000     0.000     0.000     0.000    1.37     0.00    0.00      0   -9.90   -9.00       14.5       11.8       11.9       11.8       11.8       11.8       11.8       11.8       11.8       11.8       11.8       11.8        0.0        0.0        0.0        0.0        0.0        0.0        0.0        0.0        0.0        0.0        0.0        0.0      2.8       0.2      25.9      28.3      30.7    422.57
    16     8  2024    47     2     289.4    20.5      0.0    0.0   18.6    1.8      2.6      0.0   -9.90      0.0      0.0    100      0.2      0.2   100      0.2     0.2     100     19.5    1.40      0      0      0      0      0    88.2    88.2      0     0.98      0.2      0.2      0.2   100    35.0     5.260    -9.9    0.000    0.000     100        0.00    0.000    0.000     289.4    289.4    1.40   183.1     589.4     162.7     121.5      59.8      59.8      34.3    0.000     0.000     0.000     0.000     0.000    1.40     0.00    0.00      0   -9.90   -9.00       30.8       11.9       12.0       11.9       11.8       11.8       11.8       11.8       11.8       11.7       11.7       11.7        0.0        0.0        0.0        0.0        0.0        0.0        0.0        0.0        0.0        0.0        0.0        0.0     20.5       0.2      25.5      27.5      29.4    422.57
    17     8  2024    48     2     289.3     8.9      0.0    0.0    8.8    0.1      8.8      0.0   -9.90      0.0      0.0    100      0.1      0.1   100      0.1     0.1     100     18.5    1.42      0      0      0      0      0    89.3    89.3      0     0.98      0.1      0.1      0.1   100    35.0     5.605    -9.9    0.000    0.000     100        0.00    0.000    0.000     289.3    289.3    1.42   184.3     598.2     165.1     123.0      60.5      60.5      34.8    0.000     0.000     0.000     0.000     0.000    1.42     0.00    0.00      0   -9.90   -9.00       21.6       12.8       13.4       12.7       12.4       12.2       12.1       12.0       11.9       11.9       11.9       11.8        0.0        0.0        0.0        0.0        0.0        0.0        0.0        0.0        0.0        0.0        0.0        0.0      8.9       0.1      25.7      26.5      27.3    422.57
    18     8  2024    49     2     307.9    36.8      0.0    0.0   29.8    7.0     10.9      0.0   -9.90      0.0      0.0    100      0.2      0.2   100      0.2     0.2     100     19.2    1.44      0      0      0      0      0    90.2    90.2      0     0.99      0.2      0.2      0.2   100    35.0     5.952    -9.9    0.000    0.000     100        0.00    0.000    0.000     307.9    307.9    1.44   205.0     606.9     167.5     125.0      61.5      61.5      35.3    0.000     0.000     0.000     0.000     0.000    1.44     0.00    0.00      0   -9.90   -9.00       41.9       12.5       12.7       12.5       12.4       12.2       12.1       12.1       12.0       11.9       11.9       11.9        0.0        0.0        0.0        0.0        0.0        0.0        0.0        0.0        0.0        0.0        0.0        0.0     36.8       0.2      25.7      27.2      28.7    422.57
    19     8  2024    50     2     292.2     4.9      0.0    0.0    4.9    0.0     20.5      0.0   -9.90      0.0      0.0    100      0.2      0.2   100      0.2     0.2     100     19.3    1.46      0      0      0      0      0    90.9    90.9      0     1.00      0.2      0.2      0.2   100    35.0     6.301    -9.9    0.000    0.000     100        0.00    0.000    0.000     292.2    292.2    1.46   190.3     615.5     169.9     126.9      62.5      62.5      35.8    0.000     0.000     0.000     0.000     0.000    1.46     0.00    0.00      0   -9.90   -9.00       16.6       12.7       14.3       13.4       13.0       12.7       12.5       12.3       12.2       12.1       12.1       12.0        0.0        0.0        0.0        0.0        0.0        0.0        0.0        0.0        0.0        0.0        0.0        0.0      4.9       0.2      25.7      27.3      28.9    422.57
    20     8  2024    51     2     289.7    12.8      0.0    0.0   12.3    0.5     14.6      0.0   -9.90      0.0      0.0    100      0.2      0.2   100      0.2     0.2     100     18.5    1.48      0      0      0      0      0    91.6    91.6      0     1.00      0.2      0.2      0.2   100    35.0     6.652    -9.9    0.000    0.000     100        0.00    0.000    0.000     289.7    289.7    1.48   191.4     624.2     172.3     128.5      63.2      63.2      36.3    0.000     0.000     0.000     0.000     0.000    1.48     0.00    0.00      0   -9.90   -9.00       24.7       12.2       12.3       12.3       12.2       12.2       12.1       12.1       12.0       12.0       11.9       11.9        0.0        0.0        0.0        0.0        0.0        0.0        0.0        0.0        0.0        0.0        0.0        0.0     12.8       0.2      25.3      26.5      27.8    422.57
    21     8  2024    52     2     284.6     6.2      0.0    0.0    6.2    0.0     11.1      0.0   -9.90      0.0      0.0    100      0.2      0.2   100      0.2     0.2     100     18.9    1.50      0      0      0      0      0    92.1    92.1      0     1.00      0.2      0.2      0.2   100    35.0     7.003    -9.9    0.000    0.000     100        0.00    0.000    0.000     284.6    284.6    1.50   189.2     632.8     174.7     130.5      64.3      64.3      36.8    0.000     0.000     0.000     0.000     0.000    1.50     0.00    0.00      0   -9.90   -9.00       18.6       12.6       12.9       12.4       12.2       12.1       12.0       12.0       11.9       11.9       11.9       11.9        0.0        0.0        0.0        0.0        0.0        0.0        0.0        0.0        0.0        0.0        0.0        0.0      6.2       0.2      24.9      26.9      28.9    422.57
    22     8  2024    53     2     288.4    13.1      0.0    0.0   12.6    0.5      8.5      0.0   -9.90      0.0      0.0    100      0.2      0.2   100      0.2     0.2     100     19.5    1.52      0      0      0      0      0    92.6    92.6      0     1.01      0.2      0.2      0.2   100    35.0     7.356    -9.9    0.000    0.000     100        0.00    0.000    0.000     288.4    288.4    1.52   195.7     641.3     177.0     132.4      65.2      65.2      37.3    0.000     0.000     0.000     0.000     0.000    1.52     0.00    0.00      0   -9.90   -9.00       25.1       12.3       12.5       12.2       12.1       12.0       12.0       11.9       11.9       11.9       11.8       11.8        0.0        0.0        0.0        0.0        0.0        0.0        0.0        0.0        0.0        0.0        0.0        0.0     13.1       0.2      25.1      27.5      30.0    422.57
    23     8  2024    54     2     291.9    13.8      0.0    0.0   13.2    0.6      9.5      0.0   -9.90      0.0      0.0    100      0.3      0.3   100      0.3     0.3     100     19.7    1.54      0      0      0      0      0    93.0    93.0      0     1.01      0.3      0.3      0.3   100    35.0     7.710    -9.9    0.000    0.000     100        0.00    0.000    0.000     291.9    291.9    1.54   201.4     649.8     179.4     134.4      66.3      66.3      37.8    0.000     0.000     0.000     0.000     0.000    1.54     0.00    0.00      0   -9.90   -9.00       26.0       12.6       13.0       12.5       12.3       12.1       12.0       12.0       11.9       11.9       11.9       11.8        0.0        0.0        0.0        0.0        0.0        0.0        0.0        0.0        0.0        0.0        0.0        0.0     13.8       0.3      25.4      28.9      32.3    422.57
    24     8  2024    55     2     280.7     0.8      0.0    0.0    0.8    0.0     11.8      0.0   -9.90      0.0      0.0    100      0.2      0.2   100      0.2     0.2     100     18.8    1.56      0      0      0      0      0    93.3    93.3      0     1.01      0.2      0.2      0.2   100    35.0     8.064    -9.9    0.000    0.000     100        0.00    0.000    0.000     280.7    280.7    1.56   192.1     658.3     181.7     135.9      67.0      67.0      38.3    0.000     0.000     0.000     0.000     0.000    1.56     0.00    0.00      0   -9.90   -9.00       12.6       12.7       13.1       12.6       12.4       12.2       12.2       12.1       12.0       12.0       11.9       11.9        0.0        0.0        0.0        0.0        0.0        0.0        0.0        0.0        0.0        0.0        0.0        0.0      0.8       0.2      24.4      26.8      29.2    422.57
    25     8  2024    56     3     274.4     1.9      0.0    0.0    1.9    0.0      7.8      0.0   -9.90      0.0      0.0    100      0.3      0.3   100      0.3     0.3     100     19.8    1.58      0      0      0      0      0    93.5    93.5      0     1.01      0.3      0.3      0.3   100    35.0     8.420    -9.9    0.000    0.000     100        0.00    0.000    0.000     274.4    274.4    1.58   189.0     666.7     184.0     137.7      67.9      67.9      38.8    0.000     0.000     0.000     0.000     0.000    1.58     0.00    0.00      0   -9.90   -9.00       13.5       11.8       12.0       12.0       12.0       11.9       11.9       11.9       11.9       11.8       11.8       11.8        0.0        0.0        0.0        0.0        0.0        0.0        0.0        0.0        0.0        0.0        0.0        0.0      1.9       0.2      25.7      28.5      31.4    422.57
    26     8  2024    57     3     284.1    14.2      0.0    0.0   13.5    0.6      3.6      0.0   -9.90      0.0      0.0    100      0.2      0.2   100      0.2     0.2     100     19.5    1.60      0      0      0      0      0    93.7    93.7      0     1.01      0.2      0.2      0.2   100    35.0     8.775    -9.9    0.000    0.000     100        0.00    0.000    0.000     284.1    284.1    1.60   201.5     675.1     186.4     139.3      68.6      68.6      39.3    0.000     0.000     0.000     0.000     0.000    1.60     0.00    0.00      0   -9.90   -9.00       25.5       11.9       11.9       11.8       11.8       11.8       11.8       11.8       11.8       11.8       11.8       11.8        0.0        0.0        0.0        0.0        0.0        0.0        0.0        0.0        0.0        0.0        0.0        0.0     14.2       0.2      25.3      27.5      29.7    422.57
    27     8  2024    58     3     283.0     5.7      0.0    0.0    5.7    0.0      6.6      0.0   -9.90      0.0      0.0    100      0.3      0.3   100      0.3     0.3     100     19.8    1.62      0      0      0      0      0    93.9    93.9      0     1.02      0.3      0.3      0.3   100    35.0     9.131     1.5    0.137    0.153     100        1.01    0.000    0.000     283.0    283.0    1.62   202.2     683.5     188.7     141.2      69.6      69.6      39.8    0.000     0.000     0.000     0.000     0.000    1.62     0.00    0.00      0   -9.90   -9.00       18.0       12.6       13.0       12.4       12.2       12.1       12.0       11.9       11.9       11.9       11.8       11.8        0.0        0.0        0.0        0.0        0.0        0.0        0.0        0.0        0.0        0.0        0.0        0.0      5.7       0.2      25.6      28.5      31.3    422.57
    28     8  2024    59     3     275.8     0.7      0.0    0.0    0.7    0.0      7.6      0.0   -9.90      0.0      0.0    100      0.2      0.2   100      0.2     0.2     100     20.3    1.64      0      0      0      0      0    94.0    94.0      0     1.02      0.2      0.2      0.2   100    35.0     9.487     1.8    0.175    0.194     100        1.26    0.000    0.000     275.8    275.8    1.64   197.2     691.8     191.0     142.8      70.4      70.4      40.3    0.000     0.000     0.000     0.000     0.000    1.64     0.00    0.00      0   -9.90   -9.00       12.3       12.3       12.4       12.2       12.2       12.0       12.0       11.9       11.9       11.9       11.8       11.8        0.0        0.0        0.0        0.0        0.0        0.0        0.0        0.0        0.0        0.0        0.0        0.0      0.7       0.2      26.6      29.0      31.3    422.57
    29     8  2024    60     3     272.1     1.2      0.0    0.0    1.2    0.0      4.7      0.0   -9.90      0.0      0.0    100      0.2      0.2   100      0.2     0.2     100     19.8    1.66      0      0      0      0      0    95.2    95.2      0     1.02      0.2      0.2      0.2   100    35.0     9.846     2.3    0.222    0.247     100        1.58    0.000    0.000     272.1    272.1    1.66   196.3     700.1     193.3     144.4      71.2      71.2      40.8    0.000     0.000     0.000     0.000     0.000    1.66     0.00    0.00      0   -9.90   -9.00       12.8       11.8       11.9       11.9       11.8       11.8       11.8       11.8       11.8       11.8       11.8       11.8        0.0        0.0        0.0        0.0        0.0        0.0        0.0        0.0        0.0        0.0        0.0        0.0      1.2       0.2      25.7      27.8      29.9    422.57
    30     8  2024    61     3     280.2    10.8      0.0    0.0   10.5    0.3      2.1      0.0   -9.90      0.0      0.0    100      0.3      0.3   100      0.3     0.3     100     19.5    1.68     -9      0      0      0      0    95.3    95.3      0     1.02      0.3      0.3      0.3   100    35.0    10.205     2.8    0.281    0.312     100        1.96    0.000    0.000     280.2    280.2    1.68   207.0     708.4     195.5     146.3      72.1      72.1      41.3    0.000     0.000     0.000     0.000     0.000    1.68     0.00    0.00      0   -9.90   -9.00       22.3       11.8       11.8       11.8       11.8       11.8       11.7       11.7       11.7       11.7       11.7       11.7        0.0        0.0        0.0        0.0        0.0        0.0        0.0        0.0        0.0        0.0        0.0        0.0     10.8       0.2      25.1      28.0      30.9    422.57
    31     8  2024    62     3     276.6     1.2      0.0    0.0    1.2    0.0      4.7      0.0   -9.90      0.0      0.0    100      0.2      0.2   100      0.2     0.2     100     19.6    1.70     -9      0      0      0      0    95.4    95.4      0     1.02      0.2      0.2      0.2   100    35.0    10.564     3.3    0.354    0.393     100        2.43    0.000    0.000     276.6    276.6    1.70   205.2     716.6     197.8     147.9      72.9      72.9      41.8    0.000     0.000     0.000     0.000     0.000    1.70     0.00    0.00      0   -9.90   -9.00       12.9       12.5       12.7       12.4       12.2       12.0       11.9       11.9       11.8       11.8       11.8       11.8        0.0        0.0        0.0        0.0        0.0        0.0        0.0        0.0        0.0        0.0        0.0        0.0      1.2       0.2      25.3      27.8      30.3    422.57
     1     9  2024    63     3     282.9    11.7      0.0    0.0   11.4    0.3      4.7      0.0   -9.90      0.0      0.0    100      0.3      0.3   100      0.3     0.3     100     19.2    1.71     -9      0      0      0      0    95.5    95.5      0     1.02      0.3      0.3      0.3   100    35.0    10.921     4.1    0.444    0.493     100        2.99    0.000    0.000     282.9    282.9    1.71   213.9     724.8     200.1     149.8      73.9      73.9      42.3    0.000     0.000     0.000     0.000     0.000    1.71     0.00    0.00      0   -9.90   -9.00       23.2       11.9       11.9       11.9       11.9       11.9       11.8       11.8       11.8       11.8       11.8       11.8        0.0        0.0        0.0        0.0        0.0        0.0        0.0        0.0        0.0        0.0        0.0        0.0     11.7       0.3      24.4      27.5      30.6    422.57
     2     9  2024    64     3     300.2    27.8      0.0    0.0   24.0    3.8      6.4      0.0   -9.90      0.0      0.0    100      0.2      0.2   100      0.2     0.2     100     19.4    1.73     -9      0      0      0      0    95.6    95.6      0     1.02      0.2      0.2      0.2   100    35.0    11.278     4.9    0.555    0.616     100        3.68    0.000    0.000     300.2    300.2    1.73   233.2     732.9     202.3     151.4      74.6      74.6      42.7    0.000     0.000     0.000     0.000     0.000    1.73     0.00    0.00      0   -9.90   -9.00       36.5       12.5       12.8       12.3       12.1       12.0       11.9       11.9       11.9       11.8       11.8       11.8        0.0        0.0        0.0        0.0        0.0        0.0        0.0        0.0        0.0        0.0        0.0        0.0     27.8       0.2      24.8      27.5      30.3    422.57
     3     9  2024    65     3     284.8     0.5      0.0    0.0    0.5    0.0     15.7      0.0   -9.90      0.0      0.0    100      0.2      0.2   100      0.2     0.2     100     19.9    1.75     -9      0      0      0      0    95.6    95.6      0     1.02      0.2      0.2      0.2   100    35.0    11.634     5.9    0.689    0.766     100        4.50    0.000    0.000     284.8    284.8    1.75   219.3     741.1     204.6     153.1      75.5      75.5      43.2    0.000     0.000     0.000     0.000     0.000    1.75     0.00    0.00      0   -9.90   -9.00       12.2       12.9       13.9       13.1       12.7       12.5       12.3       12.2       12.1       12.0       12.0       12.0        0.0        0.0        0.0        0.0        0.0        0.0        0.0        0.0        0.0        0.0        0.0        0.0      0.5       0.2      25.8      28.4      31.1    422.57
     4     9  2024    66     3     275.2     1.1      0.0    0.0    1.1    0.0     10.6      0.0   -9.90      0.0      0.0    100      0.2      0.2   100      0.2     0.2     100     20.0    1.77     -9      0      0      0      0    95.7    95.7      0     1.01      0.2      0.2      0.2   100    35.0    11.989     7.1    0.852    0.947     100        5.48    0.000    0.000     275.2    275.2    1.77   212.5     749.2     206.8     154.6      76.2      76.2      43.7    0.000     0.000     0.000     0.000     0.000    1.77     0.00    0.00      0   -9.90   -9.00       12.7       11.9       12.2       12.0       12.0       12.0       12.0       11.9       11.9       11.9       11.9       11.9        0.0        0.0        0.0        0.0        0.0        0.0        0.0        0.0        0.0        0.0        0.0        0.0      1.1       0.2      26.1      28.2      30.4    422.57
     5     9  2024    67     3     273.6     3.2      0.0    0.0    3.2    0.0      4.5      0.0   -9.90      0.0      0.0    100      0.2      0.2   100      0.2     0.2     100     20.5    1.79     -9      0      0      0      0    95.7    95.7      0     1.01      0.2      0.2      0.2   100    35.0    12.343     8.5    1.046    1.162     100        6.64    0.000    0.000     273.6    273.6    1.79   213.7     757.2     209.0     156.1      77.0      77.0      44.2    0.000     0.000     0.000     0.000     0.000    1.79     0.00    0.00      0   -9.90   -9.00       14.9       11.8       11.8       11.8       11.8       11.8       11.8       11.8       11.8       11.8       11.8       11.8        0.0        0.0        0.0        0.0        0.0        0.0        0.0        0.0        0.0        0.0        0.0        0.0      3.2       0.2      27.0      28.7      30.3    422.57
     6     9  2024    68     3     271.0     0.1      0.0    0.0    0.1    0.0      2.5      0.0   -9.90      0.0      0.0    100      0.2      0.2   100      0.2     0.2     100     20.0    1.81     -9      0      0      0      0    95.8    95.8      0     1.01      0.2      0.2      0.2   100    35.0    12.697    10.0    1.269    1.410     100        7.93    0.000    0.000     271.0    271.0    1.81   213.4     765.3     211.2     158.0      77.9      77.9      44.6    0.000     0.000     0.000     0.000     0.000    1.81     0.00    0.00      0   -9.90   -9.00       11.9       12.0       12.0       11.9       11.8       11.8       11.8       11.8       11.8       11.7       11.7       11.7        0.0        0.0        0.0        0.0        0.0        0.0        0.0        0.0        0.0        0.0        0.0        0.0      0.1       0.2      26.0      28.4      30.7    422.57
     7     9  2024    69     4     269.5     0.3      0.0    0.0    0.3    0.0      1.5      0.0   -9.90      0.0      0.0    100      0.3      0.3   100      0.3     0.3     100     19.7    1.83     -9      0      0      0      0    95.8    95.8      0     1.01      0.3      0.3      0.3   100    35.0    13.049    11.5    1.502    1.669     100        9.25    0.000    0.000     269.5    269.5    1.83   214.3     773.3     213.5     159.8      78.8      78.8      45.1    0.000     0.000     0.000     0.000     0.000    1.83     0.00    0.00      0   -9.90   -9.00       11.8       11.7       11.8       11.8       11.8       11.7       11.7       11.7       11.7       11.7       11.7       11.7        0.0        0.0        0.0        0.0        0.0        0.0        0.0        0.0        0.0        0.0        0.0        0.0      0.3       0.2      25.4      28.2      31.0    422.57
     8     9  2024    70     4     269.3     0.7      0.0    0.0    0.7    0.0      0.7      0.0   -9.90      0.0      0.0    100      0.3      0.3   100      0.3     0.3     100     19.8    1.85     -9      0      0      0      0    95.8    95.8      0     1.00      0.3      0.3      0.3   100    35.0    13.401    13.0    1.747    1.941     100       10.59    0.000    0.000     269.3    269.3    1.85   216.3     781.3     215.7     161.4      79.6      79.6      45.6    0.000     0.000     0.000     0.000     0.000    1.85     0.00    0.00      0   -9.90   -9.00       12.2       11.7       11.7       11.7       11.7       11.7       11.7       11.7       11.7       11.7       11.7       11.7        0.0        0.0        0.0        0.0        0.0        0.0        0.0        0.0        0.0        0.0        0.0        0.0      0.7       0.2      25.7      28.5      31.4    422.57
     9     9  2024    71     4     282.6    14.5      0.0    0.0   13.8    0.7      0.4      0.0   -9.90      0.0      0.0    100      0.2      0.2   100      0.2     0.2     100     18.6    1.87     -9      0      0      0      0    95.9    95.9      0     1.00      0.2      0.2      0.2   100    35.0    13.751    14.6    2.001    2.224     100       12.01    0.000    0.000     282.6    282.6    1.87   231.8     789.2     217.9     162.5      80.1      80.1      46.1    0.000     0.000     0.000     0.000     0.000    1.87     0.00    0.00      0   -9.90   -9.00       25.6       11.7       11.7       11.7       11.7       11.7       11.7       11.7       11.7       11.7       11.7       11.7        0.0        0.0        0.0        0.0        0.0        0.0        0.0        0.0        0.0        0.0        0.0        0.0     14.5       0.2      25.4      26.6      27.7    422.57
    10     9  2024    72     4     295.3    19.9      0.0    0.0   18.2    1.7      5.3      0.0   -9.90      0.0      0.0    100      0.2      0.2   100      0.2     0.2     100     19.1    1.89     -9      0      0      0      0    95.9    95.9      0     1.00      0.2      0.2      0.2   100    35.0    14.101    16.1    2.267    2.518     100       13.44    0.000    0.000     295.3    295.3    1.89   246.4     797.2     220.0     164.4      81.0      81.0      46.5    0.000     0.000     0.000     0.000     0.000    1.89     0.00    0.00      0   -9.90   -9.00       31.1       12.6       13.0       12.4       12.2       12.0       11.9       11.9       11.9       11.8       11.8       11.8        0.0        0.0        0.0        0.0        0.0        0.0        0.0        0.0        0.0        0.0        0.0        0.0     19.9       0.2      25.1      27.1      29.0    422.57
    11     9  2024    73     4     293.1    10.8      0.0    0.0   10.5    0.3     12.5      0.0   -9.90      0.0      0.0    100      0.2      0.2   100      0.2     0.2     100     19.4    1.90     -9      0      0      0      0    95.9    95.9      0     0.99      0.2      0.2      0.2   100    35.0    14.449    17.6    2.542    2.825     100       14.87    0.000    0.000     293.1    293.1    1.90   245.9     805.1     222.2     166.3      82.0      82.0      47.0    0.000     0.000     0.000     0.000     0.000    1.90     0.00    0.00      0   -9.90   -9.00       23.3       12.8       13.5       12.9       12.6       12.4       12.2       12.1       12.0       12.0       11.9       11.9        0.0        0.0        0.0        0.0        0.0        0.0        0.0        0.0        0.0        0.0        0.0        0.0     10.8       0.2      24.9      27.5      30.2    422.57
    12     9  2024    74     4     281.9     2.5      0.0    0.0    2.5    0.0     13.3      0.0   -9.90      0.0      0.0    100      0.2      0.2   100      0.2     0.2     100     18.9    1.92     -9      0      0      0      0    95.9    95.9      0     0.99      0.2      0.2      0.2   100    35.0    14.797    19.1    2.828    3.143     100       16.32    0.000    0.000     281.9    281.9    1.92   236.9     813.0     224.4     167.8      82.8      82.8      47.5    0.000     0.000     0.000     0.000     0.000    1.92     0.00    0.00      0   -9.90   -9.00       14.3       12.6       12.9       12.5       12.4       12.2       12.2       12.1       12.0       12.0       12.0       11.9        0.0        0.0        0.0        0.0        0.0        0.0        0.0        0.0        0.0        0.0        0.0        0.0      2.5       0.2      24.4      26.9      29.4    422.57
    13     9  2024    75     4     275.7     2.4      0.0    0.0    2.4    0.0      8.3      0.0   -9.90      0.0      0.0    100      0.3      0.3   100      0.3     0.3     100     19.4    1.94     -9      0      0      0      0    95.9    95.9      0     0.99      0.3      0.3      0.3   100    35.0    15.144    20.6    3.125    3.472     100       17.77    0.000    0.000     275.7    275.7    1.94   233.3     820.8     226.6     169.7      83.7      83.7      47.9    0.000     0.000     0.000     0.000     0.000    1.94     0.00    0.00      0   -9.90   -9.00       14.2       12.0       12.1       12.0       12.0       11.9       11.9       11.9       11.9       11.9       11.8       11.8        0.0        0.0        0.0        0.0        0.0        0.0        0.0        0.0        0.0        0.0        0.0        0.0      2.4       0.3      24.7      27.9      31.1    422.57
    14     9  2024    76     4     276.3     5.0      0.0    0.0    5.0    0.0      4.2      0.0   -9.90      0.0      0.0    100      0.2      0.2   100      0.2     0.2     100     19.5    1.96     -9      0     -9      0      0    95.3    95.3      0     0.98      0.2      0.2      0.2   100    35.0    15.486    22.2    3.431    3.812     100       19.27    0.000    0.000     276.3    276.3    1.96   236.3     828.6     228.7     171.0      84.3      84.3      48.4    0.000     0.000     0.000     0.000     0.000    1.96     0.00    0.00      0   -9.90   -9.00       16.9       11.9       12.0       11.9       11.8       11.8       11.8       11.8       11.8       11.8       11.8       11.8        0.0        0.0        0.0        0.0        0.0        0.0        0.0        0.0        0.0        0.0        0.0        0.0      5.0       0.2      25.2      27.5      29.8    422.57
    15     9  2024    77     4     284.0    11.8      0.0    0.0   11.5    0.4      3.5      0.0   -9.90      0.0      0.0    100      0.2      0.2   100      0.2     0.2     100     19.5    1.98     -9      0     -9      0      0    94.6    94.6      0     0.96      0.2      0.2      0.2   100    35.0    15.823    23.7    3.746    4.162     100       20.75    0.000    0.000     284.0    284.0    1.98   246.2     836.4     230.9     172.8      85.3      85.3      48.8    0.000     0.000     0.000     0.000     0.000    1.98     0.00    0.00      0   -9.90   -9.00       23.8       12.1       12.2       12.0       11.9       11.9       11.8       11.8       11.8       11.8       11.8       11.8        0.0        0.0        0.0        0.0        0.0        0.0        0.0        0.0        0.0        0.0        0.0        0.0     11.8       0.2      25.1      27.9      30.8    422.57
    16     9  2024    78     4     286.7     9.7      0.0    0.0    9.5    0.2      6.7      0.0   -9.90      0.0      0.0    100      0.2      0.2   100      0.2     0.2     100     18.7    2.00     -9      0     -9      0      0    93.9    93.9      0     0.95      0.2      0.2      0.2   100    35.0    16.155    25.2    4.070    4.523     100       22.35    0.000    0.000     286.7    286.7    2.00   250.8     844.2     233.0     173.9      85.7      85.7      49.3    0.000     0.000     0.000     0.000     0.000    2.00     0.00    0.00      0   -9.90   -9.00       22.2       12.6       12.8       12.4       12.2       12.1       12.0       11.9       11.9       11.8       11.8       11.8        0.0        0.0        0.0        0.0        0.0        0.0        0.0        0.0        0.0        0.0        0.0        0.0      9.7       0.2      25.2      26.7      28.1    422.57
    17     9  2024    79     4     313.3    47.6      0.0    0.0   35.8   11.8      9.0      0.0   -9.90      0.0      0.0    100      0.2      0.2   100      0.2     0.2     100     17.9    2.01     -9      0     -9      0      0    93.0    93.0      0     0.93      0.2      0.2      0.2   100    35.0    16.481    26.7    4.403    4.892     100       23.96    0.000    0.000     313.3    313.3    2.01   279.5     852.0     235.2     175.5      86.5      86.5      49.8    0.000     0.000     0.000     0.000     0.000    2.01     0.00    0.00      0   -9.90   -9.00       42.1       17.0       12.8       12.4       12.2       12.1       12.0       12.0       11.9       11.9       11.9       11.8        0.0        0.0        0.0        0.0        0.0        0.0        0.0        0.0        0.0        0.0        0.0        0.0     47.6       0.2      24.6      25.9      27.3    422.57
    18     9  2024    80     4     318.8    35.7      0.0    0.0   29.1    6.6     23.5      0.0   -9.90      0.0      0.0    100      0.2      0.2   100      0.2     0.2     100     19.3    2.03     -9      0     -9      0      0    92.0    92.0      0     0.91      0.2      0.2      0.2   100    35.0    16.801    28.2    4.744    5.271     100       25.49    0.000    0.000     318.8    318.8    2.03   286.5     859.7     237.3     177.6      87.6      87.6      50.2    0.000     0.000     0.000     0.000     0.000    2.03     0.00    0.00      0   -9.90   -9.00       41.1       12.4       14.7       13.8       13.2       12.9       12.6       12.4       12.3       12.2       12.1       12.1        0.0        0.0        0.0        0.0        0.0        0.0        0.0        0.0        0.0        0.0        0.0        0.0     35.7       0.2      24.6      27.5      30.4    422.57
    19     9  2024    81     4     299.0     9.1      0.0    0.0    9.0    0.1     28.6      0.0   -9.90      0.0      0.0    100      0.2      0.2   100      0.2     0.2     100     19.6    2.05     -9      0     -9      0      0    90.9    90.9      0     0.89      0.2      0.2      0.2   100    35.0    17.113    29.8    5.092    5.658     100       27.03    0.000    0.000     299.0    299.0    2.05   268.8     867.4     239.4     179.2      88.4      88.4      50.7    0.000     0.000     0.000     0.000     0.000    2.05     0.00    0.00      0   -9.90   -9.00       20.8       12.8       14.2       13.5       13.1       12.9       12.6       12.5       12.4       12.3       12.2       12.1        0.0        0.0        0.0        0.0        0.0        0.0        0.0        0.0        0.0        0.0        0.0        0.0      9.1       0.2      25.1      27.8      30.6    422.57
    20     9  2024    82     4     283.1     3.3      0.0    0.0    3.3    0.0     18.9      0.0   -9.90      0.0      0.0    100      0.2      0.2   100      0.2     0.2     100     19.6    2.07     -9      0     -9      0      0    89.6    89.6      0     0.87      0.2      0.2      0.2   100    35.0    17.418    31.3    5.448    6.053     100       28.56    0.000    0.000     283.1    283.1    2.07   255.4     875.1     241.5     180.9      89.3      89.3      51.1    0.000     0.000     0.000     0.000     0.000    2.07     0.00    0.00      0   -9.90   -9.00       15.3       12.5       12.7       12.5       12.4       12.3       12.2       12.1       12.1       12.0       12.0       12.0        0.0        0.0        0.0        0.0        0.0        0.0        0.0        0.0        0.0        0.0        0.0        0.0      3.3       0.3      25.2      28.2      31.2    422.57
    21     9  2024    83     4     277.9     4.1      0.0    0.0    4.1    0.0      9.1      0.0   -9.90      0.0      0.0    100      0.2      0.2   100      0.2     0.2     100     19.7    2.09     -9      0     -9      0      0    88.2    88.2      0     0.84      0.2      0.2      0.2   100    35.0    17.714    32.8    5.810    6.455     100       30.11    0.000    0.000     277.9    277.9    2.09   252.7     882.8     243.7     182.3      90.0      90.0      51.6    0.000     0.000     0.000     0.000     0.000    2.09     0.00    0.00      0   -9.90   -9.00       16.1       12.1       12.1       12.0       12.0       11.9       11.9       11.9       11.9       11.9       11.8       11.8        0.0        0.0        0.0        0.0        0.0        0.0        0.0        0.0        0.0        0.0        0.0        0.0      4.1       0.2      25.5      28.1      30.7    422.57
    22     9  2024    84     4     290.9    19.9      0.0    0.0   18.2    1.7      5.0      0.0   -9.90      0.0      0.0    100      0.2      0.2   100      0.2     0.2     100     19.5    2.10     -9      0     -9      0      0    86.6    86.6      0     0.82      0.2      0.2      0.2   100    35.0    18.001    34.3    6.177    6.864     100       31.72    0.000    0.000     290.9    290.9    2.10   267.9     890.4     245.8     183.7      90.6      90.6      52.0    0.000     0.000     0.000     0.000     0.000    2.10     0.00    0.00      0   -9.90   -9.00       30.6       12.1       12.2       12.0       11.9       11.9       11.8       11.8       11.8       11.8       11.8       11.8        0.0        0.0        0.0        0.0        0.0        0.0        0.0        0.0        0.0        0.0        0.0        0.0     19.9       0.2      25.4      27.5      29.6    422.57
    23     9  2024    85     4     291.7    11.2      0.0    0.0   10.9    0.3      9.9      0.0   -9.90      0.0      0.0    100      0.2      0.2   100      0.2     0.2     100     19.6    2.12     -9      0     -9      0      0    84.8    84.8      0     0.79      0.2      0.2      0.2   100    35.0    18.277    35.8    6.550    7.278     100       33.26    0.000    0.000     291.7    291.7    2.12   270.7     898.0     247.9     185.6      91.6      91.6      52.5    0.000     0.000     0.000     0.000     0.000    2.12     0.00    0.00      0   -9.90   -9.00       23.7       12.8       13.4       12.7       12.4       12.2       12.1       12.0       12.0       11.9       11.9       11.9        0.0        0.0        0.0        0.0        0.0        0.0        0.0        0.0        0.0        0.0        0.0        0.0     11.2       0.2      25.2      28.1      31.0    422.57
    24     9  2024    86     4     284.4     5.0      0.0    0.0    5.0    0.0     12.1      0.0   -9.90      0.0      0.0    100      0.2      0.2   100      0.2     0.2     100     19.4    2.14     -9      0     -9      0      0    82.8    82.8      0     0.76      0.2      0.2      0.2   100    35.0    18.542    37.4    6.927    7.697     100       34.80    0.000    0.000     284.4    284.4    2.14   265.4     905.6     250.0     187.1      92.3      92.3      52.9    0.000     0.000     0.000     0.000     0.000    2.14     0.00    0.00      0   -9.90   -9.00       17.3       12.6       12.9       12.5       12.3       12.2       12.1       12.0       12.0       11.9       11.9       11.9        0.0        0.0        0.0        0.0        0.0        0.0        0.0        0.0        0.0        0.0        0.0        0.0      5.0       0.2      24.9      27.8      30.8    422.57
    25     9  2024    87     4     297.6    25.3      0.0    0.0   22.2    3.1      8.9      0.0   -9.90      0.0      0.0    100      0.1      0.1   100      0.2     0.2     100     18.6    2.16     -9      0     -9      0      0    80.5    80.5      0     0.72      0.1      0.1      0.1   100    35.0    18.795    38.9    7.307    8.119     100       36.41    0.000    0.000     297.6    297.6    2.16   280.8     913.2     252.1     188.3      92.9      92.9      53.4    0.000     0.000     0.000     0.000     0.000    2.16     0.00    0.00      0   -9.90   -9.00       34.8       12.2       12.3       12.2       12.1       12.0       12.0       11.9       11.9       11.9       11.8       11.8        0.0        0.0        0.0        0.0        0.0        0.0        0.0        0.0        0.0        0.0        0.0        0.0     25.3       0.2      24.7      26.6      28.4    422.57
[...]
    10    12  2025    -9     0     262.9     0.0      0.0    0.0    0.0    0.0      0.0      0.0   -9.90      0.4      0.2     58      0.0      0.0   100      0.4     0.2      58     18.0    2.28     -9     -9     -9      0     -9     0.0     0.0      0    -9.00      0.0      0.0      0.0   100    35.1    20.220    48.0    9.706   10.784     100       43.40    0.000    0.000     262.9    262.9    2.28   260.9     965.7     266.5     199.7      98.8      98.6      56.5    0.000     0.000     0.000     0.000     0.000    2.28     0.00    0.00      0   -9.90   -9.00        5.9       11.7       11.7       11.7       11.7       11.7       11.7       11.7       11.7       11.7       11.7       11.7        0.0        0.0        0.0        0.0        0.0        0.0        0.0        0.0        0.0        0.0        0.0        0.0      0.0       0.3      22.1      27.0      32.0    424.57
    11    12  2025    -9     0     262.7     0.0      0.0    0.0    0.0    0.0      0.0      0.0   -9.90      0.4      0.2     54      0.0      0.0   100      0.4     0.2      54     17.3    2.28     -9     -9     -9      0     -9     0.0     0.0      0    -9.00      0.0      0.0      0.0   100    35.1    20.220    48.0    9.706   10.784     100       43.40    0.000    0.000     262.7    262.7    2.28   260.7     965.7     266.5     199.7      98.9      98.6      56.5    0.000     0.000     0.000     0.000     0.000    2.28     0.00    0.00      0   -9.90   -9.00        5.7       11.7       11.7       11.7       11.7       11.7       11.7       11.7       11.7       11.7       11.7       11.7        0.0        0.0        0.0        0.0        0.0        0.0        0.0        0.0        0.0        0.0        0.0        0.0      0.0       0.3      20.6      26.2      31.8    424.57
    12    12  2025    -9     0     262.5     0.0      0.0    0.0    0.0    0.0      0.0      0.0   -9.90      0.4      0.2     50      0.0      0.0   100      0.4     0.2      50     16.7    2.28     -9     -9     -9      0     -9     0.0     0.0      0    -9.00      0.0      0.0      0.0   100    35.1    20.220    48.0    9.706   10.784     100       43.40    0.000    0.000     262.5    262.5    2.28   260.5     965.7     266.5     199.7      98.9      98.6      56.5    0.000     0.000     0.000     0.000     0.000    2.28     0.00    0.00      0   -9.90   -9.00        5.6       11.7       11.7       11.7       11.7       11.7       11.7       11.7       11.7       11.7       11.7       11.7        0.0        0.0        0.0        0.0        0.0        0.0        0.0        0.0        0.0        0.0        0.0        0.0      0.0       0.3      19.4      25.6      31.8    424.57
    13    12  2025    -9     0     262.4     0.0      0.0    0.0    0.0    0.0      0.0      0.0   -9.90      0.3      0.2     47      0.0      0.0   100      0.3     0.2      47     16.8    2.28     -9     -9     -9      0     -9     0.0     0.0      0    -9.00      0.0      0.0      0.0   100    35.1    20.220    48.0    9.706   10.784     100       43.40    0.000    0.000     262.4    262.4    2.28   260.3     965.7     266.5     199.7      98.7      98.6      56.5    0.000     0.000     0.000     0.000     0.000    2.28     0.00    0.00      0   -9.90   -9.00        5.4       11.7       11.7       11.7       11.7       11.7       11.7       11.7       11.7       11.7       11.7       11.7        0.0        0.0        0.0        0.0        0.0        0.0        0.0        0.0        0.0        0.0        0.0        0.0      0.0       0.3      19.9      24.8      29.7    424.57
    14    12  2025    -9     0     262.3     0.0      0.0    0.0    0.0    0.0      0.0      0.0   -9.90      0.3      0.1     45      0.0      0.0   100      0.3     0.1      45     14.4    2.28     -9     -9     -9      0     -9     0.0     0.0      0    -9.00      0.0      0.0      0.0   100    35.1    20.220    48.0    9.706   10.784     100       43.40    0.000    0.000     262.3    262.3    2.28   260.2     965.7     266.5     199.7      98.6      98.6      56.5    0.000     0.000     0.000     0.000     0.000    2.28     0.00    0.00      0   -9.90   -9.00        5.3       11.7       11.7       11.7       11.7       11.7       11.7       11.7       11.7       11.7       11.7       11.7        0.0        0.0        0.0        0.0        0.0        0.0        0.0        0.0        0.0        0.0        0.0        0.0      0.0       0.3      17.8      22.4      27.0    424.57
    15    12  2025    -9     0     262.1     0.0      0.0    0.0    0.0    0.0      0.0      0.0   -9.90      0.3      0.1     43      0.0      0.0   100      0.3     0.1      43     14.6    2.28     -9     -9     -9      0     -9     0.0     0.0      0    -9.00      0.0      0.0      0.0   100    35.1    20.220    48.0    9.706   10.784     100       43.40    0.000    0.000     262.1    262.1    2.28   260.1     965.7     266.5     199.7      98.8      98.6      56.5    0.000     0.000     0.000     0.000     0.000    2.28     0.00    0.00      0   -9.90   -9.00        5.1       11.7       11.7       11.7       11.7       11.7       11.7       11.7       11.7       11.7       11.7       11.7        0.0        0.0        0.0        0.0        0.0        0.0        0.0        0.0        0.0        0.0        0.0        0.0      0.0       0.3      16.8      22.6      28.4    424.57
    16    12  2025    -9     0     262.0     0.0      0.0    0.0    0.0    0.0      0.0      0.0   -9.90      0.3      0.1     40      0.0      0.0   100      0.3     0.1      40     16.8    2.28     -9     -9     -9      0     -9     0.0     0.0      0    -9.00      0.0      0.0      0.0   100    35.1    20.220    48.0    9.706   10.784     100       43.40    0.000    0.000     262.0    262.0    2.28   259.9     965.7     266.5     199.7      98.7      98.6      56.5    0.000     0.000     0.000     0.000     0.000    2.28     0.00    0.00      0   -9.90   -9.00        5.0       11.7       11.7       11.7       11.7       11.7       11.7       11.7       11.7       11.7       11.7       11.7        0.0        0.0        0.0        0.0        0.0        0.0        0.0        0.0        0.0        0.0        0.0        0.0      0.0       0.3      19.9      24.8      29.7    424.57
    17    12  2025    -9     0     261.9     0.0      0.0    0.0    0.0    0.0      0.0      0.0   -9.90      0.3      0.1     39      0.0      0.0   100      0.3     0.1      39     16.8    2.28     -9     -9     -9      0     -9     0.0     0.0      0    -9.00      0.0      0.0      0.0   100    35.1    20.220    48.0    9.706   10.784     100       43.40    0.000    0.000     261.9    261.9    2.28   259.8     965.7     266.5     199.7      98.6      98.6      56.5    0.000     0.000     0.000     0.000     0.000    2.28     0.00    0.00      0   -9.90   -9.00        4.9       11.7       11.7       11.7       11.7       11.7       11.7       11.7       11.7       11.7       11.7       11.7        0.0        0.0        0.0        0.0        0.0        0.0        0.0        0.0        0.0        0.0        0.0        0.0      0.0       0.3      20.6      24.8      28.9    424.57
    18    12  2025    -9     0     261.8     0.0      0.0    0.0    0.0    0.0      0.0      0.0   -9.90      0.3      0.1     37      0.0      0.0   100      0.3     0.1      37     15.6    2.28     -9     -9     -9      0     -9     0.0     0.0      0    -9.00      0.0      0.0      0.0   100    35.1    20.220    48.0    9.706   10.784     100       43.40    0.000    0.000     261.8    261.8    2.28   259.7     965.7     266.5     199.7      98.6      98.6      56.5    0.000     0.000     0.000     0.000     0.000    2.28     0.00    0.00      0   -9.90   -9.00        4.7       11.7       11.7       11.7       11.7       11.7       11.7       11.7       11.7       11.7       11.7       11.7        0.0        0.0        0.0        0.0        0.0        0.0        0.0        0.0        0.0        0.0        0.0        0.0      0.0       0.3      19.4      23.6      27.9    424.57
    19    12  2025    -9     0     261.6     0.0      0.0    0.0    0.0    0.0      0.0      0.0   -9.90      0.4      0.1     36      0.0      0.0   100      0.4     0.1      36     15.6    2.28     -9     -9     -9      0     -9     0.0     0.0      0    -9.00      0.0      0.0      0.0   100    35.1    20.220    48.0    9.706   10.784     100       43.40    0.000    0.000     261.6    261.6    2.28   259.6     965.7     266.5     199.7      98.8      98.6      56.5    0.000     0.000     0.000     0.000     0.000    2.28     0.00    0.00      0   -9.90   -9.00        4.6       11.7       11.7       11.7       11.7       11.7       11.7       11.7       11.7       11.7       11.7       11.7        0.0        0.0        0.0        0.0        0.0        0.0        0.0        0.0        0.0        0.0        0.0        0.0      0.0       0.3      17.6      23.6      29.6    424.57
    20    12  2025    -9     0     261.5     0.0      0.0    0.0    0.0    0.0      0.0      0.0   -9.90      0.4      0.1     34      0.0      0.0   100      0.4     0.1      34     16.7    2.28     -9     -9     -9      0     -9     0.0     0.0      0    -9.00      0.0      0.0      0.0   100    35.1    20.220    48.0    9.706   10.784     100       43.40    0.000    0.000     261.5    261.5    2.28   259.5     965.7     266.5     199.7      98.9      98.6      56.5    0.000     0.000     0.000     0.000     0.000    2.28     0.00    0.00      0   -9.90   -9.00        4.5       11.7       11.7       11.7       11.7       11.7       11.7       11.7       11.7       11.7       11.7       11.7        0.0        0.0        0.0        0.0        0.0        0.0        0.0        0.0        0.0        0.0        0.0        0.0      0.0       0.3      19.4      25.3      31.3    424.57
    21    12  2025    -9     0     261.4     0.0      0.0    0.0    0.0    0.0      0.0      0.0   -9.90      0.4      0.1     32      0.0      0.0   100      0.4     0.1      32     16.4    2.28     -9     -9     -9      0     -9     0.0     0.0      0    -9.00      0.0      0.0      0.0   100    35.1    20.220    48.0    9.706   10.784     100       43.40    0.000    0.000     261.4    261.4    2.28   259.3     965.7     266.5     199.7      99.0      98.6      56.5    0.000     0.000     0.000     0.000     0.000    2.28     0.00    0.00      0   -9.90   -9.00        4.4       11.7       11.7       11.7       11.7       11.7       11.7       11.7       11.7       11.7       11.7       11.7        0.0        0.0        0.0        0.0        0.0        0.0        0.0        0.0        0.0        0.0        0.0        0.0      0.0       0.3      18.8      25.3      31.7    424.57
    22    12  2025    -9     0     261.3     0.0      0.0    0.0    0.0    0.0      0.0      0.0   -9.90      0.4      0.1     31      0.0      0.0   100      0.4     0.1      31     16.6    2.28     -9     -9     -9      0     -9     0.0     0.0      0    -9.00      0.0      0.0      0.0   100    35.1    20.220    48.0    9.706   10.784     100       43.40    0.000    0.000     261.3    261.3    2.28   259.2     965.7     266.5     199.7      98.9      98.6      56.5    0.000     0.000     0.000     0.000     0.000    2.28     0.00    0.00      0   -9.90   -9.00        4.2       11.7       11.7       11.7       11.7       11.7       11.7       11.7       11.7       11.7       11.7       11.7        0.0        0.0        0.0        0.0        0.0        0.0        0.0        0.0        0.0        0.0        0.0        0.0      0.0       0.3      19.1      25.3      31.5    424.57
    23    12  2025    -9     0     261.2     0.0      0.0    0.0    0.0    0.0      0.0      0.0   -9.90      0.4      0.1     30      0.0      0.0   100      0.4     0.1      30     16.6    2.28     -9     -9     -9      0     -9     0.0     0.0      0    -9.00      0.0      0.0      0.0   100    35.1    20.220    48.0    9.706   10.784     100       43.40    0.000    0.000     261.2    261.2    2.28   259.1     965.7     266.5     199.7      98.9      98.6      56.5    0.000     0.000     0.000     0.000     0.000    2.28     0.00    0.00      0   -9.90   -9.00        4.1       11.7       11.7       11.7       11.7       11.7       11.7       11.7       11.7       11.7       11.7       11.7        0.0        0.0        0.0        0.0        0.0        0.0        0.0        0.0        0.0        0.0        0.0        0.0      0.0       0.3      19.2      25.1      31.1    424.57
    24    12  2025    -9     0     261.1     0.0      0.0    0.0    0.0    0.0      0.0      0.0   -9.90      0.3      0.1     29      0.0      0.0   100      0.3     0.1      29     17.5    2.28     -9     -9     -9      0     -9     0.0     0.0      0    -9.00      0.0      0.0      0.0   100    35.1    20.220    48.0    9.706   10.784     100       43.40    0.000    0.000     261.1    261.1    2.28   259.0     965.7     266.5     199.7      98.8      98.6      56.5    0.000     0.000     0.000     0.000     0.000    2.28     0.00    0.00      0   -9.90   -9.00        4.0       11.7       11.7       11.7       11.7       11.7       11.7       11.7       11.7       11.7       11.7       11.7        0.0        0.0        0.0        0.0        0.0        0.0        0.0        0.0        0.0        0.0        0.0        0.0      0.0       0.3      21.0      25.9      30.9    424.57
    25    12  2025    -9     0     261.0     0.0      0.0    0.0    0.0    0.0      0.0      0.0   -9.90      0.4      0.1     28      0.0      0.0   100      0.4     0.1      28     16.5    2.28     -9     -9     -9      0     -9     0.0     0.0      0    -9.00      0.0      0.0      0.0   100    35.1    20.220    48.0    9.706   10.784     100       43.40    0.000    0.000     261.0    261.0    2.28   258.9     965.7     266.5     199.7      99.0      98.6      56.5    0.000     0.000     0.000     0.000     0.000    2.28     0.00    0.00      0   -9.90   -9.00        3.9       11.7       11.7       11.7       11.7       11.7       11.7       11.7       11.7       11.7       11.7       11.7        0.0        0.0        0.0        0.0        0.0        0.0        0.0        0.0        0.0        0.0        0.0        0.0      0.0       0.3      19.0      25.4      31.9    424.57
    26    12  2025    -9     0     260.9     0.0      0.0    0.0    0.0    0.0      0.0      0.0   -9.90      0.4      0.1     27      0.0      0.0   100      0.4     0.1      27     16.6    2.28     -9     -9     -9      0     -9     0.0     0.0      0    -9.00      0.0      0.0      0.0   100    35.1    20.220    48.0    9.706   10.784     100       43.40    0.000    0.000     260.9    260.9    2.28   258.8     965.7     266.5     199.7      98.9      98.6      56.5    0.000     0.000     0.000     0.000     0.000    2.28     0.00    0.00      0   -9.90   -9.00        3.8       11.7       11.7       11.7       11.7       11.7       11.7       11.7       11.7       11.7       11.7       11.7        0.0        0.0        0.0        0.0        0.0        0.0        0.0        0.0        0.0        0.0        0.0        0.0      0.0       0.3      19.1      24.9      30.7    424.57
    27    12  2025    -9     0     260.8     0.0      0.0    0.0    0.0    0.0      0.0      0.0   -9.90      0.4      0.1     28      0.0      0.0   100      0.4     0.1      28     15.9    2.28     -9     -9     -9      0     -9     0.0     0.0      0    -9.00      0.0      0.0      0.0   100    35.1    20.220    48.0    9.706   10.784     100       43.40    0.000    0.000     260.8    260.8    2.28   258.7     965.7     266.5     199.7      99.0      98.6      56.5    0.000     0.000     0.000     0.000     0.000    2.28     0.00    0.00      0   -9.90   -9.00        3.7       11.7       11.7       11.7       11.7       11.7       11.7       11.7       11.7       11.7       11.7       11.7        0.0        0.0        0.0        0.0        0.0        0.0        0.0        0.0        0.0        0.0        0.0        0.0      0.0       0.3      17.9      24.5      31.1    424.57
    28    12  2025    -9     0     260.7     0.0      0.0    0.0    0.0    0.0      0.0      0.0   -9.90      0.4      0.1     25      0.0      0.0   100      0.4     0.1      25     16.4    2.28     -9     -9     -9      0     -9     0.0     0.0      0    -9.00      0.0      0.0      0.0   100    35.1    20.220    48.0    9.706   10.784     100       43.40    0.000    0.000     260.7    260.7    2.28   258.6     965.7     266.5     199.7      99.0      98.6      56.5    0.000     0.000     0.000     0.000     0.000    2.28     0.00    0.00      0   -9.90   -9.00        3.6       11.7       11.7       11.7       11.7       11.7       11.7       11.7       11.7       11.7       11.7       11.7        0.0        0.0        0.0        0.0        0.0        0.0        0.0        0.0        0.0        0.0        0.0        0.0      0.0       0.4      18.7      25.5      32.3    424.57
    29    12  2025    -9     0     260.6     0.0      0.0    0.0    0.0    0.0      0.0      0.0   -9.90      0.4      0.1     24      0.0      0.0   100      0.4     0.1      24     16.7    2.28     -9     -9     -9      0     -9     0.0     0.0      0    -9.00      0.0      0.0      0.0   100    35.1    20.220    48.0    9.706   10.784     100       43.40    0.000    0.000     260.6    260.6    2.28   258.5     965.7     266.5     199.7      99.1      98.6      56.5    0.000     0.000     0.000     0.000     0.000    2.28     0.00    0.00      0   -9.90   -9.00        3.5       11.7       11.7       11.7       11.7       11.7       11.7       11.7       11.7       11.7       11.7       11.7        0.0        0.0        0.0        0.0        0.0        0.0        0.0        0.0        0.0        0.0        0.0        0.0      0.0       0.4      19.4      26.5      33.7    424.57
    30    12  2025    -9     0     260.5     0.0      0.0    0.0    0.0    0.0      0.0      0.0   -9.90      0.4      0.1     23      0.0      0.0   100      0.4     0.1      23     16.9    2.28     -9     -9     -9      0     -9     0.0     0.0      0    -9.00      0.0      0.0      0.0   100    35.1    20.220    48.0    9.706   10.784     100       43.40    0.000    0.000     260.5    260.5    2.28   258.4     965.7     266.5     199.7      99.1      98.6      56.5    0.000     0.000     0.000     0.000     0.000    2.28     0.00    0.00      0   -9.90   -9.00        3.4       11.7       11.7       11.7       11.7       11.7       11.7       11.7       11.7       11.7       11.7       11.7        0.0        0.0        0.0        0.0        0.0        0.0        0.0        0.0        0.0        0.0        0.0        0.0      0.0       0.4      19.8      26.6      33.4    424.57
    31    12  2025    -9     0     260.4     0.0      0.0    0.0    0.0    0.0      0.0      0.0   -9.90      0.4      0.1     22      0.0      0.0   100      0.4     0.1      22     16.8    2.28     -9     -9     -9      0     -9     0.0     0.0      0    -9.00      0.0      0.0      0.0   100    35.1    20.220    48.0    9.706   10.784     100       43.40    0.000    0.000     260.4    260.4    2.28   258.3     965.7     266.5     199.7      99.1      98.6      56.5    0.000     0.000     0.000     0.000     0.000    2.28     0.00    0.00      0   -9.90   -9.00        3.3       11.7       11.7       11.7       11.7       11.7       11.7       11.7       11.7       11.7       11.7       11.7        0.0        0.0        0.0        0.0        0.0        0.0        0.0        0.0        0.0        0.0        0.0        0.0      0.0       0.4      19.7      26.8      33.9    424.57
