AquaCrop 7.1 (August 2023) - Output created on (date) : 16-01-2026   at (time) : 12:17:16

   Run:   1
   Day Month  Year   DAP Stage   WC(2.30)   Rain     Irri   Surf   Infilt   RO    Drain       CR    Zgwt       Ex       E     E/Ex     Trx       Tr  Tr/Trx    ETx      ET  ET/ETx      GD       Z     StExp  StSto  StSen StSalt StWeed   CC      CCw     StTr  Kc(Tr)     Trx       Tr      TrW  Tr/Trx   WP    Biomass     HI    Y(dry)  Y(fresh)  Brelative    WPet      Bin     Bout  WC(2.30) Wr(2.30)     Z       Wr    Wr(SAT)    Wr(FC)   Wr(exp)   Wr(sto)   Wr(sen)   Wr(PWP)    SaltIn    SaltOut   SaltUp   Salt(2.30)  SaltZ     Z       ECe    ECsw   StSalt  Zgwt    ECgw       WC01       WC 2       WC 3       WC 4       WC 5       WC 6       WC 7       WC 8       WC 9       WC10       WC11       WC12      ECe01      ECe 2      ECe 3      ECe 4      ECe 5      ECe 6      ECe 7      ECe 8      ECe 9      ECe10      ECe11      ECe12     Rain       ETo      Tmin      Tavg      Tmax      CO2
                                      mm      mm       mm     mm     mm     mm       mm       mm      m        mm       mm     %        mm       mm    %        mm      mm       %  degC-day     m       %      %      %      %      %      %       %       %       -        mm       mm       mm    %     g/m2    ton/ha      %    ton/ha   ton/ha       %       kg/m3   ton/ha   ton/ha      mm       mm       m       mm        mm        mm        mm        mm        mm         mm    ton/ha    ton/ha    ton/ha    ton/ha    ton/ha     m      dS/m    dS/m      %     m      dS/m       0.05       0.18       0.33       0.48       0.63       0.80       1.00       1.20       1.43       1.68       1.93       2.18       0.05       0.18       0.33       0.48       0.63       0.80       1.00       1.20       1.43       1.68       1.93       2.18       mm        mm     degC      degC      degC       ppm
     1     7  2011     1     1     263.9     4.8      0.0    0.0    4.8    0.0      0.0      0.0   -9.90     15.9      9.5     60      0.0      0.0   100     15.9     9.5      60     17.8    0.30     -9     -9     -9      0     -9     0.0     0.0      0    -9.00      0.0      0.0      0.0   100     0.0     0.000    -9.9    0.000    0.000      -9        0.00    0.000    0.000     263.9    263.9    0.30    29.9     125.1      34.6      30.7      21.5      15.5       6.9    0.000     0.000     0.000     0.000     0.000    0.30     0.00    0.00      0   -9.90   -9.00        6.9       11.7       11.7       11.7       11.7       11.7       11.7       11.7       11.7       11.7       11.7       11.7        0.0        0.0        0.0        0.0        0.0        0.0        0.0        0.0        0.0        0.0        0.0        0.0      4.8      14.4      21.6      27.9      34.2    391.85
     2     7  2011     2     1     262.2     7.4      0.0    0.0    7.4    0.0      0.0      0.0   -9.90     14.5      9.0     62      0.0      0.0   100     14.5     9.0      62     17.3    0.30     -9     -9     -9      0     -9     0.0     0.0      0    -9.00      0.0      0.0      0.0   100     0.0     0.000    -9.9    0.000    0.000      -9        0.00    0.000    0.000     262.2    262.2    0.30    28.2     125.1      34.6      30.7      20.7      15.5       6.9    0.000     0.000     0.000     0.000     0.000    0.30     0.00    0.00      0   -9.90   -9.00        5.2       11.7       11.7       11.7       11.7       11.7       11.7       11.7       11.7       11.7       11.7       11.7        0.0        0.0        0.0        0.0        0.0        0.0        0.0        0.0        0.0        0.0        0.0        0.0      7.4      13.2      20.6      26.2      31.9    391.85
     3     7  2011     3     1     259.5     5.0      0.0    0.0    5.0    0.0      0.0      0.0   -9.90     16.2      7.7     47      0.0      0.0   100     16.2     7.7      47     16.8    0.30     -9     -9     -9      0     -9     0.0     0.0      0    -9.00      0.0      0.0      0.0   100     0.0     0.000    -9.9    0.000    0.000      -9        0.00    0.000    0.000     259.5    259.5    0.30    25.5     125.1      34.6      30.7      21.7      15.5       6.9    0.000     0.000     0.000     0.000     0.000    0.30     0.00    0.00      0   -9.90   -9.00        2.5       11.7       11.7       11.7       11.7       11.7       11.7       11.7       11.7       11.7       11.7       11.7        0.0        0.0        0.0        0.0        0.0        0.0        0.0        0.0        0.0        0.0        0.0        0.0      5.0      14.8      19.6      26.6      33.7    391.85
     4     7  2011     4     1     259.9     9.1      0.0    0.0    9.1    0.0      0.0      0.0   -9.90     15.5      8.7     56      0.0      0.0   100     15.5     8.7      56     17.0    0.30     -9     -9     -9      0     -9     0.0     0.0      0    -9.00      0.0      0.0      0.0   100     0.0     0.000    -9.9    0.000    0.000      -9        0.00    0.000    0.000     259.9    259.9    0.30    25.9     125.1      34.6      30.7      21.3      15.5       6.9    0.000     0.000     0.000     0.000     0.000    0.30     0.00    0.00      0   -9.90   -9.00        2.9       11.7       11.7       11.7       11.7       11.7       11.7       11.7       11.7       11.7       11.7       11.7        0.0        0.0        0.0        0.0        0.0        0.0        0.0        0.0        0.0        0.0        0.0        0.0      9.1      14.1      20.1      26.5      32.9    391.85
     5     7  2011     5     1     258.1     3.9      0.0    0.0    3.9    0.0      0.0      0.0   -9.90     17.9      5.7     32      0.0      0.0   100     17.9     5.7      32     16.7    0.32     -9     -9     -9      0     -9     0.0     0.0      0    -9.00      0.0      0.0      0.0   100     0.0     0.000    -9.9    0.000    0.000      -9        0.00    0.000    0.000     258.1    258.1    0.32    26.5     133.5      36.9      32.8      24.2      16.5       7.4    0.000     0.000     0.000     0.000     0.000    0.32     0.00    0.00      0   -9.90   -9.00        1.2       11.6       11.7       11.7       11.7       11.7       11.7       11.7       11.7       11.7       11.7       11.7        0.0        0.0        0.0        0.0        0.0        0.0        0.0        0.0        0.0        0.0        0.0        0.0      3.9      16.3      19.4      27.6      35.8    391.85
     6     7  2011     6     1     256.9     2.6      0.0    0.0    2.6    0.0      0.0      0.0   -9.90     17.0      3.9     23      0.0      0.0   100     17.0     3.9      23     16.3    0.36     -9     -9     -9      0     -9     0.0     0.0      0    -9.00      0.0      0.0      0.0   100     0.0     0.000    -9.9    0.000    0.000      -9        0.00    0.000    0.000     256.9    256.9    0.36    29.9     150.6      41.6      37.0      26.7      18.7       8.4    0.000     0.000     0.000     0.000     0.000    0.36     0.00    0.00      0   -9.90   -9.00        1.2       10.8       11.7       11.7       11.7       11.7       11.7       11.7       11.7       11.7       11.7       11.7        0.0        0.0        0.0        0.0        0.0        0.0        0.0        0.0        0.0        0.0        0.0        0.0      2.6      15.5      18.6      26.4      34.2    391.85
     7     7  2011     7     2     259.7     5.0      3.0    0.0    5.0    0.0      0.0      0.0   -9.90     15.2      5.1     33      0.1      0.1   100     15.3     5.2      34     16.5    0.40     -9      0      0      0      0     0.4     0.4      0     0.01      0.1      0.1      0.1   100    34.3     0.003    -9.9    0.000    0.000     100        0.00    0.000    0.000     259.7    259.7    0.40    37.2     166.4      46.0      46.0      28.3      28.3       9.3    0.000     0.000     0.000     0.000     0.000    0.40     0.00    0.00      0   -9.90   -9.00        9.4        9.4        9.5       11.7       11.7       11.7       11.7       11.7       11.7       11.7       11.7       11.7        0.0        0.0        0.0        0.0        0.0        0.0        0.0        0.0        0.0        0.0        0.0        0.0      5.0      13.9      19.0      25.6      32.2    391.85
     8     7  2011     8     2     259.7     3.6      5.3    0.0    3.6    0.0      0.0      0.0   -9.90     16.9      8.8     52      0.1      0.1   100     17.0     9.0      53     16.2    0.43     -9      0      0      0      0     0.5     0.5      0     0.01      0.1      0.1      0.1   100    34.3     0.006    -9.9    0.000    0.000     100        0.00    0.000    0.000     259.7    259.7    0.43    41.7     181.2      50.1      50.1      32.2      32.2      10.2    0.000     0.000     0.000     0.000     0.000    0.43     0.00    0.00      0   -9.90   -9.00        9.6        9.6        9.6       11.3       11.7       11.7       11.7       11.7       11.7       11.7       11.7       11.7        0.0        0.0        0.0        0.0        0.0        0.0        0.0        0.0        0.0        0.0        0.0        0.0      3.6      15.5      18.4      26.2      34.1    391.85
     9     7  2011     9     2     259.3     9.5      0.0    0.0    9.5    0.0      0.0      0.0   -9.90     15.5      9.8     63      0.2      0.2   100     15.6     9.9      63     17.4    0.47      0      0      0      0      0     0.6     0.6      0     0.01      0.2      0.2      0.2   100    34.3     0.010    -9.9    0.000    0.000     100        0.00    0.000    0.000     259.3    259.3    0.47    45.1     195.4      54.0      54.0      33.5      33.5      11.0    0.000     0.000     0.000     0.000     0.000    0.47     0.00    0.00      0   -9.90   -9.00        9.2        9.6        9.6       11.3       11.7       11.7       11.7       11.7       11.7       11.7       11.7       11.7        0.0        0.0        0.0        0.0        0.0        0.0        0.0        0.0        0.0        0.0        0.0        0.0      9.5      14.2      20.8      27.2      33.5    391.85
    10     7  2011    10     2     258.0     1.6      4.3    0.0    1.6    0.0      0.0      0.0   -9.90     16.6      7.0     42      0.2      0.2   100     16.8     7.2      43     17.0    0.50      4      0      0      0      0     0.7     0.7      0     0.01      0.2      0.2      0.2   100    34.3     0.014    -9.9    0.000    0.000     100        0.00    0.000    0.000     258.0    258.0    0.50    47.9     209.1      57.8      57.8      37.0      37.0      11.9    0.000     0.000     0.000     0.000     0.000    0.50     0.00    0.00      0   -9.90   -9.00        9.6        9.6        9.6       10.2       11.7       11.7       11.7       11.7       11.7       11.7       11.7       11.7        0.0        0.0        0.0        0.0        0.0        0.0        0.0        0.0        0.0        0.0        0.0        0.0      1.6      15.3      20.0      27.3      34.6    391.85
    11     7  2011    11     2     256.2     4.9      2.1    0.0    4.9    0.0      0.0      0.0   -9.90     14.5      8.7     60      0.2      0.2   100     14.7     8.9      60     17.3    0.53      0      0      0      0      0     0.8     0.8      0     0.01      0.2      0.2      0.2   100    34.3     0.019    -9.9    0.000    0.000     100        0.00    0.000    0.000     256.2    256.2    0.53    49.4     222.3      61.4      61.4      37.2      37.2      12.6    0.000     0.000     0.000     0.000     0.000    0.53     0.00    0.00      0   -9.90   -9.00        9.4        9.4        9.4        9.5       11.7       11.7       11.7       11.7       11.7       11.7       11.7       11.7        0.0        0.0        0.0        0.0        0.0        0.0        0.0        0.0        0.0        0.0        0.0        0.0      4.9      13.4      20.6      26.4      32.2    391.85
    12     7  2011    12     2     256.2     1.3      5.5    0.0    1.3    0.0      0.0      0.0   -9.90     15.2      6.5     43      0.2      0.2   100     15.5     6.8      44     17.0    0.56      5      0      0      0      0     1.0     1.0      0     0.02      0.2      0.2      0.2   100    34.3     0.025    -9.9    0.000    0.000      99        0.00    0.000    0.000     256.2    256.2    0.56    52.8     235.2      65.0      65.0      40.2      40.2      13.4    0.000     0.000     0.000     0.000     0.000    0.56     0.00    0.00      0   -9.90   -9.00        9.4        9.4        9.5        9.5       11.6       11.7       11.7       11.7       11.7       11.7       11.7       11.7        0.0        0.0        0.0        0.0        0.0        0.0        0.0        0.0        0.0        0.0        0.0        0.0      1.3      14.1      20.1      26.5      32.9    391.85
    13     7  2011    13     2     256.1     5.9      3.7    0.0    5.9    0.0      0.0      0.0   -9.90     16.4      9.4     58      0.3      0.3   100     16.7     9.7      58     17.2    0.59      0      0      0      0      0     1.2     1.2      0     0.02      0.3      0.3      0.3   100    34.3     0.032    -9.9    0.000    0.000      99        0.00    0.000    0.000     256.1    256.1    0.59    56.6     247.7      68.4      68.4      43.7      43.7      14.1    0.000     0.000     0.000     0.000     0.000    0.59     0.00    0.00      0   -9.90   -9.00        9.6        9.6        9.6        9.6       11.1       11.7       11.7       11.7       11.7       11.7       11.7       11.7        0.0        0.0        0.0        0.0        0.0        0.0        0.0        0.0        0.0        0.0        0.0        0.0      5.9      15.2      20.4      27.6      34.7    391.85
    14     7  2011    14     2     256.8    11.7      0.0    0.0   11.7    0.1      0.0      0.0   -9.90     17.2     10.6     62      0.4      0.4   100     17.6    11.0      63     16.5    0.62      0      0      0      0      0     1.4     1.4      0     0.02      0.4      0.4      0.4   100    34.3     0.040    -9.9    0.000    0.000      99        0.00    0.000    0.000     256.8    256.8    0.62    60.5     259.9      71.8      71.8      47.0      47.0      14.8    0.000     0.000     0.000     0.000     0.000    0.62     0.00    0.00      0   -9.90   -9.00       10.3        9.6        9.6        9.6       11.1       11.7       11.7       11.7       11.7       11.7       11.7       11.7        0.0        0.0        0.0        0.0        0.0        0.0        0.0        0.0        0.0        0.0        0.0        0.0     11.7      16.0      19.0      27.1      35.2    391.85
    15     7  2011    15     2     256.1     9.7      0.0    0.0    9.7    0.0      0.0      0.0   -9.90     16.2      9.9     61      0.4      0.4   100     16.6    10.4      62     16.8    0.65      0      0      0      0      0     1.6     1.6      0     0.03      0.4      0.4      0.4   100    34.3     0.050    -9.9    0.000    0.000      99        0.00    0.000    0.000     256.1    256.1    0.65    62.9     271.9      75.1      75.1      48.0      48.0      15.6    0.000     0.000     0.000     0.000     0.000    0.65     0.00    0.00      0   -9.90   -9.00        9.5        9.6        9.6        9.6       11.1       11.7       11.7       11.7       11.7       11.7       11.7       11.7        0.0        0.0        0.0        0.0        0.0        0.0        0.0        0.0        0.0        0.0        0.0        0.0      9.7      15.1      19.6      26.9      34.2    391.85
    16     7  2011    16     2     255.0     9.5      0.0    0.0    9.5    0.0      0.0      0.0   -9.90     16.7     10.0     60      0.5      0.5   100     17.3    10.6      61     16.6    0.67      0      0      0      0      0     1.9     1.9      0     0.03      0.5      0.5      0.5   100    34.3     0.062    -9.9    0.000    0.000      99        0.00    0.000    0.000     255.0    255.0    0.67    64.9     283.6      78.3      78.3      50.9      50.9      16.2    0.000     0.000     0.000     0.000     0.000    0.67     0.00    0.00      0   -9.90   -9.00        8.5        9.6        9.6        9.6       11.1       11.7       11.7       11.7       11.7       11.7       11.7       11.7        0.0        0.0        0.0        0.0        0.0        0.0        0.0        0.0        0.0        0.0        0.0        0.0      9.5      15.7      19.2      27.0      34.9    391.85
    17     7  2011    17     2     253.6     7.5      0.8    0.0    7.5    0.0      0.0      0.0   -9.90     15.6      9.2     59      0.6      0.6   100     16.2     9.8      60     17.4    0.70      0      0      0      0      0     2.2     2.2      0     0.04      0.6      0.6      0.6   100    34.3     0.075    -9.9    0.000    0.000      99        0.00    0.000    0.000     253.6    253.6    0.70    66.5     295.2      81.5      81.5      51.5      51.5      16.9    0.000     0.000     0.000     0.000     0.000    0.70     0.00    0.00      0   -9.90   -9.00        9.5        9.5        9.6        9.6        9.6       11.7       11.7       11.7       11.7       11.7       11.7       11.7        0.0        0.0        0.0        0.0        0.0        0.0        0.0        0.0        0.0        0.0        0.0        0.0      7.5      14.7      20.8      27.5      34.3    391.85
    18     7  2011    18     2     252.2     6.0      2.1    0.0    6.0    0.0      0.0      0.0   -9.90     14.4      8.8     61      0.6      0.6   100     15.1     9.5      63     17.0    0.73      0      0      0      0      0     2.6     2.6      0     0.05      0.6      0.6      0.6   100    34.3     0.091    -9.9    0.000    0.000      99        0.00    0.000    0.000     252.2    252.2    0.73    68.8     306.5      84.6      84.6      51.9      51.9      17.6    0.000     0.000     0.000     0.000     0.000    0.73     0.00    0.00      0   -9.90   -9.00        9.4        9.4        9.5        9.5        9.5       11.4       11.7       11.7       11.7       11.7       11.7       11.7        0.0        0.0        0.0        0.0        0.0        0.0        0.0        0.0        0.0        0.0        0.0        0.0      6.0      13.7      19.9      26.1      32.4    391.85
    19     7  2011    19     2     253.6    12.1      0.0    0.0   12.0    0.1      0.0      0.0   -9.90     15.2      9.8     65      0.8      0.8   100     16.0    10.6      66     17.1    0.75      0      0      0      0      0     3.1     3.1      0     0.05      0.8      0.8      0.8   100    34.3     0.110    -9.9    0.000    0.000      99        0.00    0.000    0.000     253.6    253.6    0.75    73.2     317.7      87.7      87.7      55.2      55.2      18.3    0.000     0.000     0.000     0.000     0.000    0.75     0.00    0.00      0   -9.90   -9.00       10.8        9.4        9.5        9.5        9.5       11.4       11.7       11.7       11.7       11.7       11.7       11.7        0.0        0.0        0.0        0.0        0.0        0.0        0.0        0.0        0.0        0.0        0.0        0.0     12.1      14.6      20.1      26.9      33.6    391.85
    20     7  2011    20     2     250.3     4.1      2.2    0.0    4.1    0.0      0.0      0.0   -9.90     13.7      8.7     63      0.9      0.9   100     14.6     9.5      66     17.8    0.78      0      0      0      0      0     3.7     3.7      0     0.06      0.9      0.9      0.9   100    34.3     0.132    -9.9    0.000    0.000      99        0.00    0.000    0.000     250.3    250.3    0.78    73.8     328.7      90.8      90.8      55.0      55.0      18.9    0.000     0.000     0.000     0.000     0.000    0.78     0.00    0.00      0   -9.90   -9.00        9.4        9.4        9.4        9.4        9.4       10.6       11.7       11.7       11.7       11.7       11.7       11.7        0.0        0.0        0.0        0.0        0.0        0.0        0.0        0.0        0.0        0.0        0.0        0.0      4.1      13.3      21.7      27.2      32.8    391.85
    21     7  2011    21     2     251.1     8.2      3.4    0.0    8.2    0.0      0.0      0.0   -9.90     16.0      9.6     60      1.2      1.2   100     17.2    10.8      62     15.9    0.81      0      0      0      0      0     4.3     4.3      0     0.08      1.2      1.2      1.2   100    34.3     0.158    -9.9    0.000    0.000      99        0.00    0.000    0.000     251.1    251.1    0.81    77.8     339.6      93.8      93.8      61.0      61.0      19.5    0.000     0.000     0.000     0.000     0.000    0.81     0.00    0.00      0   -9.90   -9.00        9.6        9.6        9.7        9.7        9.7       10.1       11.7       11.7       11.7       11.7       11.7       11.7        0.0        0.0        0.0        0.0        0.0        0.0        0.0        0.0        0.0        0.0        0.0        0.0      8.2      15.7      17.8      26.0      34.2    391.85
    22     7  2011    22     2     248.7     4.2      3.1    0.0    4.2    0.0      0.0      0.0   -9.90     13.7      8.6     63      1.2      1.2   100     14.9     9.8      66     18.0    0.83      0      0      0      0      0     5.1     5.1      0     0.09      1.2      1.2      1.2   100    34.3     0.189    -9.9    0.000    0.000      99        0.00    0.000    0.000     248.7    248.7    0.83    78.3     350.3      96.7      96.7      59.2      59.2      20.2    0.000     0.000     0.000     0.000     0.000    0.83     0.00    0.00      0   -9.90   -9.00        9.4        9.4        9.4        9.4        9.4        9.7       11.7       11.7       11.7       11.7       11.7       11.7        0.0        0.0        0.0        0.0        0.0        0.0        0.0        0.0        0.0        0.0        0.0        0.0      4.2      13.6      22.0      27.7      33.5    391.85
    23     7  2011    23     2     249.7     4.1      7.3    0.0    4.1    0.0      0.0      0.0   -9.90     15.0      8.8     59      1.6      1.6   100     16.5    10.3      63     17.3    0.86      0      0      0      0      0     6.0     6.0      0     0.10      1.6      1.6      1.6   100    34.3     0.225    -9.9    0.000    0.000      99        0.00    0.000    0.000     249.7    249.7    0.86    81.7     360.9      99.7      99.7      63.7      63.7      20.8    0.000     0.000     0.000     0.000     0.000    0.86     0.00    0.00      0   -9.90   -9.00        9.6        9.6        9.6        9.6        9.6        9.6       11.7       11.7       11.7       11.7       11.7       11.7        0.0        0.0        0.0        0.0        0.0        0.0        0.0        0.0        0.0        0.0        0.0        0.0      4.1      15.1      20.6      27.7      34.7    391.85
    24     7  2011    24     2     249.8    11.2      0.6    0.0   11.2    0.0      0.0      0.0   -9.90     14.8      9.8     66      1.9      1.9   100     16.7    11.7      70     16.6    0.88      0      0      0      0      0     7.1     7.1      0     0.12      1.9      1.9      1.9   100    34.3     0.267    -9.9    0.000    0.000      99        0.00    0.000    0.000     249.8    249.8    0.88    84.2     371.4     102.5     102.5      65.8      65.8      21.4    0.000     0.000     0.000     0.000     0.000    0.88     0.00    0.00      0   -9.90   -9.00        9.6        9.6        9.6        9.6        9.6        9.6       11.7       11.7       11.7       11.7       11.7       11.7        0.0        0.0        0.0        0.0        0.0        0.0        0.0        0.0        0.0        0.0        0.0        0.0     11.2      15.2      19.3      26.7      34.2    391.85
    25     7  2011    25     2     249.4     5.4      5.0    0.0    5.4    0.0      0.0      0.0   -9.90     14.2      8.6     61      2.1      2.1   100     16.3    10.8      66     17.5    0.91      0      0      0      0      0     8.4     8.4      0     0.14      2.1      2.1      2.1   100    34.3     0.316    -9.9    0.000    0.000      99        0.00    0.000    0.000     249.4    249.4    0.91    86.3     381.7     105.4     105.4      67.1      67.1      22.0    0.000     0.000     0.000     0.000     0.000    0.91     0.00    0.00      0   -9.90   -9.00        9.5        9.5        9.6        9.6        9.6        9.6       11.6       11.7       11.7       11.7       11.7       11.7        0.0        0.0        0.0        0.0        0.0        0.0        0.0        0.0        0.0        0.0        0.0        0.0      5.4      14.9      21.1      27.9      34.7    391.85
    26     7  2011    26     2     249.8     2.2      7.9    0.0    2.2    0.0      0.0      0.0   -9.90     14.7      7.1     48      2.7      2.7   100     17.4     9.8      56     15.5    0.93      0      0      0      0      0     9.9     9.9      0     0.17      2.7      2.7      2.7   100    34.3     0.373    -9.9    0.000    0.000      99        0.00    0.000    0.000     249.8    249.8    0.93    90.0     392.0     108.2     108.2      70.8      70.8      22.6    0.000     0.000     0.000     0.000     0.000    0.93     0.00    0.00      0   -9.90   -9.00        9.6        9.6        9.7        9.7        9.7        9.7       11.4       11.7       11.7       11.7       11.7       11.7        0.0        0.0        0.0        0.0        0.0        0.0        0.0        0.0        0.0        0.0        0.0        0.0      2.2      15.9      17.1      25.6      34.2    391.85
    27     7  2011    27     2     247.6     6.3      2.9    0.0    6.3    0.0      0.0      0.0   -9.90     13.1      8.5     65      2.9      2.9   100     15.9    11.4      71     17.1    0.95      0      0      0      0      0    11.7    11.7      0     0.20      2.9      2.9      2.9   100    34.3     0.440    -9.9    0.000    0.000      99        0.00    0.000    0.000     247.6    247.6    0.95    91.2     402.2     111.0     111.0      70.0      70.0      23.2    0.000     0.000     0.000     0.000     0.000    0.95     0.00    0.00      0   -9.90   -9.00        9.5        9.5        9.6        9.6        9.6        9.6       10.9       11.7       11.7       11.7       11.7       11.7        0.0        0.0        0.0        0.0        0.0        0.0        0.0        0.0        0.0        0.0        0.0        0.0      6.3      14.6      20.2      27.0      33.8    391.85
    28     7  2011    28     2     246.8     6.4      4.8    0.0    6.4    0.0      0.0      0.0   -9.90     12.8      8.6     68      3.4      3.4   100     16.2    12.0      74     17.8    0.98      0      0      0      0      0    13.7    13.7      0     0.23      3.4      3.4      3.4   100    34.3     0.518    -9.9    0.000    0.000      99        0.00    0.000    0.000     246.8    246.8    0.98    93.7     412.2     113.8     113.8      72.3      72.3      23.8    0.000     0.000     0.000     0.000     0.000    0.98     0.00    0.00      0   -9.90   -9.00        9.5        9.5        9.6        9.6        9.6        9.6       10.4       11.7       11.7       11.7       11.7       11.7        0.0        0.0        0.0        0.0        0.0        0.0        0.0        0.0        0.0        0.0        0.0        0.0      6.4      14.9      21.6      28.2      34.9    391.85
    29     7  2011    29     2     246.8     4.3      8.1    0.0    4.3    0.0      0.0      0.0   -9.90     12.8      8.3     65      4.1      4.1   100     16.9    12.4      73     17.4    1.00      0      0      0      0      0    16.2    16.2      0     0.26      4.1      4.1      4.1   100    34.3     0.609    -9.9    0.000    0.000      99        0.00    0.000    0.000     246.8    246.8    1.00    96.4     422.2     116.6     116.6      75.6      75.6      24.4    0.000     0.000     0.000     0.000     0.000    1.00     0.00    0.00      0   -9.90   -9.00        9.6        9.6        9.7        9.7        9.7        9.7       10.0       11.7       11.7       11.7       11.7       11.7        0.0        0.0        0.0        0.0        0.0        0.0        0.0        0.0        0.0        0.0        0.0        0.0      4.3      15.6      20.9      28.2      35.6    391.85
    30     7  2011    30     2     246.1     2.2      8.5    0.0    2.2    0.0      0.0      0.0   -9.90     12.0      6.6     55      4.7      4.7   100     16.7    11.3      68     17.0    1.02      0      0      0      0      0    19.1    19.1      0     0.31      4.7      4.7      4.7   100    34.3     0.714    -9.9    0.000    0.000      99        0.00    0.000    0.000     246.1    246.1    1.02    98.3     432.0     119.3     119.3      76.9      76.9      25.0    0.000     0.000     0.000     0.000     0.000    1.02     0.00    0.00      0   -9.90   -9.00        9.6        9.6        9.6        9.6        9.6        9.6        9.8       11.7       11.7       11.7       11.7       11.7        0.0        0.0        0.0        0.0        0.0        0.0        0.0        0.0        0.0        0.0        0.0        0.0      2.2      15.4      20.0      27.4      34.9    391.85
    31     7  2011    31     2     245.0     5.4      6.3    0.0    5.4    0.0      0.0      0.0   -9.90     10.6      7.6     72      5.2      5.2   100     15.8    12.8      81     17.7    1.05      0      0      0      0      0    22.5    22.5      0     0.36      5.2      5.2      5.2   100    34.3     0.836    -9.9    0.000    0.000      99        0.00    0.000    0.000     245.0    245.0    1.05    99.5     441.8     122.0     122.0      76.9      76.9      25.6    0.000     0.000     0.000     0.000     0.000    1.05     0.00    0.00      0   -9.90   -9.00        9.5        9.5        9.5        9.5        9.5        9.5        9.6       11.7       11.7       11.7       11.7       11.7        0.0        0.0        0.0        0.0        0.0        0.0        0.0        0.0        0.0        0.0        0.0        0.0      5.4      14.6      21.4      27.9      34.5    391.85
     1     8  2011    32     2     245.0     8.1      5.5    0.0    8.1    0.0      0.0      0.0   -9.90      9.8      7.6     78      6.0      6.0   100     15.8    13.6      86     17.3    1.07      0      0      0      0      0    26.6    26.6      0     0.41      6.0      6.0      6.0   100    34.3     0.977    -9.9    0.000    0.000      99        0.00    0.000    0.000     245.0    245.0    1.07   101.7     451.5     124.7     124.7      78.8      78.8      26.1    0.000     0.000     0.000     0.000     0.000    1.07     0.00    0.00      0   -9.90   -9.00        9.5        9.5        9.6        9.6        9.6        9.6        9.6       11.7       11.7       11.7       11.7       11.7        0.0        0.0        0.0        0.0        0.0        0.0        0.0        0.0        0.0        0.0        0.0        0.0      8.1      14.7      20.6      27.3      34.1    391.85
     2     8  2011    33     2     244.3     1.1      9.5    0.0    1.1    0.0      0.0      0.0   -9.90      8.5      4.8     56      6.6      6.6   100     15.1    11.4      75     16.8    1.09      5      0      0      0      0    31.1    31.1      0     0.47      6.6      6.6      6.6   100    34.3     1.137    -9.9    0.000    0.000      99        0.00    0.000    0.000     244.3    244.3    1.09   103.2     461.2     127.3     127.3      79.0      79.0      26.7    0.000     0.000     0.000     0.000     0.000    1.09     0.00    0.00      0   -9.90   -9.00        9.4        9.4        9.5        9.5        9.5        9.5        9.5       11.7       11.7       11.7       11.7       11.7        0.0        0.0        0.0        0.0        0.0        0.0        0.0        0.0        0.0        0.0        0.0        0.0      1.1      14.1      19.6      26.2      32.8    391.85
     3     8  2011    34     2     243.9    12.1      1.8    0.0   12.0    0.1      0.0      0.0   -9.90      7.6      6.7     88      7.5      7.5   100     15.1    14.2      94     16.7    1.12      0      0      0      0      0    36.7    36.7      0     0.53      7.5      7.5      7.5   100    34.3     1.319    -9.9    0.000    0.000      99        0.00    0.000    0.000     243.9    243.9    1.12   105.6     470.7     130.0     130.0      80.6      80.6      27.3    0.000     0.000     0.000     0.000     0.000    1.12     0.00    0.00      0   -9.90   -9.00        9.4        9.4        9.5        9.5        9.5        9.5        9.5       11.5       11.7       11.7       11.7       11.7        0.0        0.0        0.0        0.0        0.0        0.0        0.0        0.0        0.0        0.0        0.0        0.0     12.1      14.1      19.4      26.0      32.7    391.85
     4     8  2011    35     2     243.0     3.0      9.9    0.0    3.0    0.0      0.0      0.0   -9.90      6.4      5.4     84      8.4      8.4   100     14.8    13.8      93     17.4    1.14      0      0      0      0      0    43.3    43.3      0     0.61      8.4      8.4      8.4   100    34.3     1.527    -9.9    0.000    0.000      98        0.00    0.000    0.000     243.0    243.0    1.14   107.9     480.2     132.6     132.6      81.9      81.9      27.8    0.000     0.000     0.000     0.000     0.000    1.14     0.00    0.00      0   -9.90   -9.00        9.4        9.4        9.5        9.5        9.5        9.5        9.5       11.1       11.7       11.7       11.7       11.7        0.0        0.0        0.0        0.0        0.0        0.0        0.0        0.0        0.0        0.0        0.0        0.0      3.0      13.9      20.8      27.0      33.2    391.85
     5     8  2011    36     2     242.4     3.9     10.4    0.0    3.9    0.0      0.0      0.0   -9.90      5.4      5.2     96      9.7      9.7   100     15.1    14.9      98     17.7    1.16      0      0      0      0      0    50.8    50.8      0     0.68      9.7      9.7      9.7   100    34.3     1.762    -9.9    0.000    0.000      98        0.00    0.000    0.000     242.4    242.4    1.16   110.4     489.6     135.2     135.2      84.3      84.3      28.4    0.000     0.000     0.000     0.000     0.000    1.16     0.00    0.00      0   -9.90   -9.00        9.5        9.5        9.5        9.5        9.5        9.5        9.5       10.7       11.7       11.7       11.7       11.7        0.0        0.0        0.0        0.0        0.0        0.0        0.0        0.0        0.0        0.0        0.0        0.0      3.9      14.2      21.4      27.7      34.0    391.85
     6     8  2011    37     2     241.4     5.3      8.8    0.0    5.3    0.0      0.0      0.0   -9.90      4.4      4.4     99     10.6     10.6   100     15.0    15.0     100     16.7    1.18      0      0      0      0      0    57.6    57.6      0     0.75     10.6     10.6     10.6   100    34.3     2.018    -9.9    0.000    0.000      99        0.00    0.000    0.000     241.4    241.4    1.18   112.4     499.0     137.8     137.8      85.9      85.9      28.9    0.000     0.000     0.000     0.000     0.000    1.18     0.00    0.00      0   -9.90   -9.00        9.5        9.5        9.5        9.5        9.5        9.5        9.5       10.2       11.7       11.7       11.7       11.7        0.0        0.0        0.0        0.0        0.0        0.0        0.0        0.0        0.0        0.0        0.0        0.0      5.3      14.2      19.3      26.1      32.8    391.85
     7     8  2011    38     2     239.3     5.7      6.0    0.0    5.7    0.0      0.0      0.0   -9.90      3.4      3.4    100     10.4     10.4   100     13.8    13.8     100     18.1    1.20      0      0      0      0      0    63.3    63.3      0     0.80     10.4     10.4     10.4   100    34.3     2.292    -9.9    0.000    0.000      99        0.00    0.000    0.000     239.3    239.3    1.20   112.9     508.3     140.3     140.3      84.6      84.6      29.5    0.000     0.000     0.000     0.000     0.000    1.20     0.00    0.00      0   -9.90   -9.00        9.3        9.3        9.4        9.4        9.4        9.4        9.4        9.8       11.7       11.7       11.7       11.7        0.0        0.0        0.0        0.0        0.0        0.0        0.0        0.0        0.0        0.0        0.0        0.0      5.7      13.1      22.1      27.5      32.9    391.85
     8     8  2011    39     2     242.1     3.6     15.6    0.0    3.6    0.0      0.0      0.0   -9.90      3.4      3.4    100     13.1     13.1   100     16.5    16.5     100     16.8    1.23      0      0      0      0      0    68.2    68.2      0     0.84     13.1     13.1     13.1   100    34.3     2.579    -9.9    0.000    0.000      99        0.00    0.000    0.000     242.1    242.1    1.23   117.8     517.5     142.9     142.9      92.7      92.7      30.0    0.000     0.000     0.000     0.000     0.000    1.23     0.00    0.00      0   -9.90   -9.00        9.6        9.6        9.7        9.7        9.7        9.7        9.7        9.7       11.7       11.7       11.7       11.7        0.0        0.0        0.0        0.0        0.0        0.0        0.0        0.0        0.0        0.0        0.0        0.0      3.6      15.6      19.7      27.4      35.1    391.85
     9     8  2011    40     2     240.7     5.1      9.0    0.0    5.1    0.0      0.0      0.0   -9.90      2.7      2.7    100     12.8     12.8   100     15.4    15.4     100     17.1    1.25      0      0      0      0      0    72.3    72.3      0     0.87     12.8     12.8     12.8   100    34.3     2.877    -9.9    0.000    0.000      99        0.00    0.000    0.000     240.7    240.7    1.25   118.7     526.7     145.4     145.4      91.8      91.8      30.6    0.000     0.000     0.000     0.000     0.000    1.25     0.00    0.00      0   -9.90   -9.00        9.5        9.5        9.6        9.6        9.6        9.6        9.6        9.6       11.7       11.7       11.7       11.7        0.0        0.0        0.0        0.0        0.0        0.0        0.0        0.0        0.0        0.0        0.0        0.0      5.1      14.7      20.2      27.1      34.0    391.85
    10     8  2011    41     2     241.3     4.7     11.8    0.0    4.7    0.0      0.0      0.0   -9.90      2.3      2.3    100     13.6     13.6   100     15.9    15.9     100     16.3    1.27      0      0      0      0      0    75.8    75.8      0     0.90     13.6     13.6     13.6   100    34.3     3.185    -9.9    0.000    0.000      99        0.00    0.000    0.000     241.3    241.3    1.27   121.3     535.8     147.9     147.9      94.7      94.7      31.1    0.000     0.000     0.000     0.000     0.000    1.27     0.00    0.00      0   -9.90   -9.00        9.6        9.6        9.6        9.6        9.6        9.6        9.6        9.6       11.7       11.7       11.7       11.7        0.0        0.0        0.0        0.0        0.0        0.0        0.0        0.0        0.0        0.0        0.0        0.0      4.7      15.1      18.6      26.2      33.9    391.85
    11     8  2011    42     2     241.3     1.2     14.5    0.0    1.2    0.0      0.0      0.0   -9.90      2.0      1.9     94     13.9     13.9   100     15.9    15.7      99     16.9    1.29      5      0      0      0      0    78.6    78.6      0     0.92     13.9     13.9     13.9   100    34.3     3.500    -9.9    0.000    0.000      99        0.00    0.000    0.000     241.3    241.3    1.29   123.3     544.9     150.4     150.4      96.2      96.2      31.6    0.000     0.000     0.000     0.000     0.000    1.29     0.00    0.00      0   -9.90   -9.00        9.6        9.6        9.6        9.6        9.6        9.6        9.6        9.6       11.7       11.7       11.7       11.7        0.0        0.0        0.0        0.0        0.0        0.0        0.0        0.0        0.0        0.0        0.0        0.0      1.2      15.1      19.7      27.1      34.4    391.85
    12     8  2011    43     2     241.8     1.6     15.3    0.0    1.6    0.0      0.0      0.0   -9.90      1.8      1.8     99     14.6     14.6   100     16.4    16.4     100     16.4    1.31      2      0      0      0      0    81.1    81.1      0     0.94     14.6     14.6     14.6   100    34.3     3.821    -9.9    0.000    0.000      99        0.00    0.000    0.000     241.8    241.8    1.31   126.3     553.9     152.9     152.9      99.3      99.3      32.2    0.000     0.000     0.000     0.000     0.000    1.31     0.00    0.00      0   -9.90   -9.00        9.6        9.6        9.7        9.7        9.7        9.7        9.7        9.7       11.6       11.7       11.7       11.7        0.0        0.0        0.0        0.0        0.0        0.0        0.0        0.0        0.0        0.0        0.0        0.0      1.6      15.6      18.8      26.8      34.8    391.85
    13     8  2011    44     2     239.2     9.4      2.9    0.0    9.4    0.0      0.0      0.0   -9.90      1.4      1.4    100     13.5     13.5   100     14.9    14.9     100     17.2    1.33      0      0      0      0      0    83.2    83.2      0     0.95     13.5     13.5     13.5   100    34.3     4.147    -9.9    0.000    0.000      99        0.00    0.000    0.000     239.2    239.2    1.33   126.8     562.8     155.4     155.4      96.9      96.9      32.7    0.000     0.000     0.000     0.000     0.000    1.33     0.00    0.00      0   -9.90   -9.00        9.5        9.5        9.5        9.5        9.5        9.5        9.5        9.5       11.3       11.7       11.7       11.7        0.0        0.0        0.0        0.0        0.0        0.0        0.0        0.0        0.0        0.0        0.0        0.0      9.4      14.2      20.5      27.1      33.6    391.85
    14     8  2011    45     2     238.9     5.8      9.3    0.0    5.8    0.0      0.0      0.0   -9.90      1.2      1.2    100     14.2     14.2   100     15.4    15.4     100     16.8    1.35      0      0      0      0      0    85.0    85.0      0     0.96     14.2     14.2     14.2   100    34.3     4.478    -9.9    0.000    0.000      99        0.00    0.000    0.000     238.9    238.9    1.35   129.6     571.7     157.8     157.8      99.9      99.9      33.2    0.000     0.000     0.000     0.000     0.000    1.35     0.00    0.00      0   -9.90   -9.00        9.5        9.5        9.6        9.6        9.6        9.6        9.6        9.6       11.0       11.7       11.7       11.7        0.0        0.0        0.0        0.0        0.0        0.0        0.0        0.0        0.0        0.0        0.0        0.0      5.8      14.7      19.6      26.7      33.8    391.85
    15     8  2011    46     2     237.5     6.9      6.9    0.0    6.9    0.0      0.0      0.0   -9.90      1.0      1.0    100     14.1     14.1   100     15.2    15.2     100     17.0    1.37      0      0      0      0      0    86.6    86.6      0     0.98     14.1     14.1     14.1   100    34.3     4.812    -9.9    0.000    0.000      99        0.00    0.000    0.000     237.5    237.5    1.37   131.3     580.6     160.3     160.3     100.8     100.8      33.8    0.000     0.000     0.000     0.000     0.000    1.37     0.00    0.00      0   -9.90   -9.00        9.5        9.5        9.5        9.5        9.5        9.5        9.5        9.5       10.5       11.7       11.7       11.7        0.0        0.0        0.0        0.0        0.0        0.0        0.0        0.0        0.0        0.0        0.0        0.0      6.9      14.5      20.0      26.9      33.8    391.85
    16     8  2011    47     2     237.6     3.5     12.4    0.0    3.5    0.0      0.0      0.0   -9.90      1.0      1.0    100     14.9     14.9   100     15.9    15.9     100     16.7    1.40      0      0      0      0      0    87.9    87.9      0     0.98     14.9     14.9     14.9   100    34.3     5.150    -9.9    0.000    0.000      99        0.00    0.000    0.000     237.6    237.6    1.40   134.1     589.4     162.7     162.7     104.4     104.4      34.3    0.000     0.000     0.000     0.000     0.000    1.40     0.00    0.00      0   -9.90   -9.00        9.6        9.6        9.6        9.6        9.6        9.6        9.6        9.6       10.2       11.7       11.7       11.7        0.0        0.0        0.0        0.0        0.0        0.0        0.0        0.0        0.0        0.0        0.0        0.0      3.5      15.2      19.4      26.9      34.4    391.85
    17     8  2011    48     2     235.5     4.0      8.9    0.0    4.0    0.0      0.0      0.0   -9.90      0.8      0.8    100     14.1     14.1   100     14.9    14.9     100     16.0    1.42      0      0      0      0      0    89.0    89.0      0     0.99     14.1     14.1     14.1   100    34.3     5.490    -9.9    0.000    0.000      99        0.00    0.000    0.000     235.5    235.5    1.42   134.5     598.2     165.1     165.1     103.1     103.1      34.8    0.000     0.000     0.000     0.000     0.000    1.42     0.00    0.00      0   -9.90   -9.00        9.5        9.5        9.5        9.5        9.5        9.5        9.5        9.5        9.9       11.7       11.7       11.7        0.0        0.0        0.0        0.0        0.0        0.0        0.0        0.0        0.0        0.0        0.0        0.0      4.0      14.2      17.9      25.1      32.3    391.85
    18     8  2011    49     2     235.1     9.1      5.4    0.0    9.1    0.0      0.0      0.0   -9.90      0.7      0.7    100     14.3     14.3   100     14.9    14.9     100     17.0    1.44      0      0      0      0      0    90.0    90.0      0     1.00     14.3     14.3     14.3   100    34.3     5.832    -9.9    0.000    0.000      99        0.00    0.000    0.000     235.1    235.1    1.44   136.3     606.9     167.5     167.5     104.7     104.7      35.3    0.000     0.000     0.000     0.000     0.000    1.44     0.00    0.00      0   -9.90   -9.00        9.5        9.5        9.5        9.5        9.5        9.5        9.5        9.5        9.7       11.7       11.7       11.7        0.0        0.0        0.0        0.0        0.0        0.0        0.0        0.0        0.0        0.0        0.0        0.0      9.1      14.3      20.1      26.8      33.5    391.85
    19     8  2011    50     2     236.9     3.5     14.6    0.0    3.5    0.0      0.0      0.0   -9.90      0.7      0.7    100     15.6     15.6   100     16.3    16.3     100     16.9    1.46      0      0      0      0      0    90.7    90.7      0     1.00     15.6     15.6     15.6   100    34.3     6.176    -9.9    0.000    0.000      99        0.00    0.000    0.000     236.9    236.9    1.46   140.1     615.5     169.9     169.9     110.2     110.2      35.8    0.000     0.000     0.000     0.000     0.000    1.46     0.00    0.00      0   -9.90   -9.00        9.6        9.6        9.7        9.7        9.7        9.7        9.7        9.7        9.7       11.7       11.7       11.7        0.0        0.0        0.0        0.0        0.0        0.0        0.0        0.0        0.0        0.0        0.0        0.0      3.5      15.6      19.8      27.6      35.3    391.85
    20     8  2011    51     2     236.6     3.5     12.3    0.0    3.5    0.0      0.0      0.0   -9.90      0.6      0.6    100     15.5     15.5   100     16.1    16.1     100     16.5    1.48      0      0      0      0      0    91.4    91.4      0     1.01     15.5     15.5     15.5   100    34.3     6.522    -9.9    0.000    0.000      99        0.00    0.000    0.000     236.6    236.6    1.48   141.8     624.2     172.3     172.3     111.2     111.2      36.3    0.000     0.000     0.000     0.000     0.000    1.48     0.00    0.00      0   -9.90   -9.00        9.6        9.6        9.6        9.6        9.6        9.6        9.6        9.6        9.6       11.7       11.7       11.7        0.0        0.0        0.0        0.0        0.0        0.0        0.0        0.0        0.0        0.0        0.0        0.0      3.5      15.4      19.0      26.8      34.7    391.85
    21     8  2011    52     2     235.5     1.1     13.2    0.0    1.1    0.0      0.0      0.0   -9.90      0.5      0.5    100     14.9     14.9   100     15.4    15.4     100     16.4    1.50      5      0      0      0      0    91.9    91.9      0     1.01     14.9     14.9     14.9   100    34.3     6.868    -9.9    0.000    0.000      99        0.00    0.000    0.000     235.5    235.5    1.50   142.7     632.8     174.7     174.7     110.6     110.6      36.8    0.000     0.000     0.000     0.000     0.000    1.50     0.00    0.00      0   -9.90   -9.00        9.5        9.5        9.6        9.6        9.6        9.6        9.6        9.6        9.6       11.7       11.7       11.7        0.0        0.0        0.0        0.0        0.0        0.0        0.0        0.0        0.0        0.0        0.0        0.0      1.1      14.7      18.9      26.3      33.6    391.85
    22     8  2011    53     2     234.1     8.0      5.1    0.0    8.0    0.0      0.0      0.0   -9.90      0.4      0.4    100     14.1     14.1   100     14.5    14.5     100     17.0    1.52      0      0      0      0      0    92.4    92.4      0     1.01     14.1     14.1     14.1   100    34.3     7.216    -9.9    0.000    0.000      99        0.00    0.000    0.000     234.1    234.1    1.52   143.3     641.3     177.0     177.0     109.4     109.4      37.3    0.000     0.000     0.000     0.000     0.000    1.52     0.00    0.00      0   -9.90   -9.00        9.4        9.4        9.5        9.5        9.5        9.5        9.5        9.5        9.5       11.7       11.7       11.7        0.0        0.0        0.0        0.0        0.0        0.0        0.0        0.0        0.0        0.0        0.0        0.0      8.0      13.9      19.9      26.4      33.0    391.85
    23     8  2011    54     2     234.8     1.7     14.0    0.0    1.7    0.0      0.0      0.0   -9.90      0.4      0.4    100     14.6     14.6   100     15.0    15.0     100     16.8    1.54      2      0      0      0      0    92.8    92.8      0     1.02     14.6     14.6     14.6   100    34.3     7.565    -9.9    0.000    0.000      99        0.00    0.000    0.000     234.8    234.8    1.54   145.9     649.8     179.4     179.4     112.3     112.3      37.8    0.000     0.000     0.000     0.000     0.000    1.54     0.00    0.00      0   -9.90   -9.00        9.5        9.5        9.5        9.5        9.5        9.5        9.5        9.5        9.5       11.7       11.7       11.7        0.0        0.0        0.0        0.0        0.0        0.0        0.0        0.0        0.0        0.0        0.0        0.0      1.7      14.3      19.6      26.6      33.5    391.85
    24     8  2011    55     2     236.3     2.5     15.0    0.0    2.5    0.0      0.0      0.0   -9.90      0.4      0.4    100     15.6     15.6   100     16.0    16.0     100     16.5    1.56      0      0      0      0      0    93.1    93.1      0     1.02     15.6     15.6     15.6   100    34.3     7.915    -9.9    0.000    0.000      99        0.00    0.000    0.000     236.3    236.3    1.56   149.6     658.3     181.7     181.7     117.1     117.1      38.3    0.000     0.000     0.000     0.000     0.000    1.56     0.00    0.00      0   -9.90   -9.00        9.6        9.6        9.6        9.6        9.6        9.6        9.6        9.6        9.6       11.6       11.7       11.7        0.0        0.0        0.0        0.0        0.0        0.0        0.0        0.0        0.0        0.0        0.0        0.0      2.5      15.3      19.0      26.9      34.7    391.85
    25     8  2011    56     3     233.1     3.4      7.8    0.0    3.4    0.0      0.0      0.0   -9.90      0.3      0.3    100     14.1     14.1   100     14.4    14.4     100     17.9    1.58      0      0      0      0      0    93.4    93.4      0     1.02     14.1     14.1     14.1   100    34.3     8.265    -9.9    0.000    0.000      99        0.00    0.000    0.000     233.1    233.1    1.58   149.2     666.7     184.0     184.0     113.3     113.3      38.8    0.000     0.000     0.000     0.000     0.000    1.58     0.00    0.00      0   -9.90   -9.00        9.4        9.4        9.5        9.5        9.5        9.5        9.5        9.5        9.5       11.4       11.7       11.7        0.0        0.0        0.0        0.0        0.0        0.0        0.0        0.0        0.0        0.0        0.0        0.0      3.4      13.8      21.8      27.9      33.9    391.85
    26     8  2011    57     3     233.7     3.6     12.3    0.0    3.6    0.0      0.0      0.0   -9.90      0.3      0.3    100     15.0     15.0   100     15.3    15.3     100     16.2    1.60      0      0      0      0      0    93.6    93.6      0     1.02     15.0     15.0     15.0   100    34.3     8.616    -9.9    0.000    0.000      99        0.00    0.000    0.000     233.7    233.7    1.60   152.8     675.1     186.4     186.4     117.9     117.9      39.3    0.000     0.000     0.000     0.000     0.000    1.60     0.00    0.00      0   -9.90   -9.00        9.5        9.5        9.6        9.6        9.6        9.6        9.6        9.6        9.6       11.1       11.7       11.7        0.0        0.0        0.0        0.0        0.0        0.0        0.0        0.0        0.0        0.0        0.0        0.0      3.6      14.7      18.4      25.9      33.5    391.85
    27     8  2011    58     3     233.6     5.3     10.5    0.0    5.3    0.0      0.0      0.0   -9.90      0.3      0.3    100     15.6     15.6   100     15.9    15.9     100     16.4    1.62      0      0      0      0      0    93.8    93.8      0     1.02     15.6     15.6     15.6   100    34.3     8.967     1.5    0.135    0.151      99        0.02    0.000    0.000     233.6    233.6    1.62   155.6     683.5     188.7     188.7     121.1     121.1      39.8    0.000     0.000     0.000     0.000     0.000    1.62     0.00    0.00      0   -9.90   -9.00        9.6        9.6        9.6        9.6        9.6        9.6        9.6        9.6        9.6       10.7       11.7       11.7        0.0        0.0        0.0        0.0        0.0        0.0        0.0        0.0        0.0        0.0        0.0        0.0      5.3      15.2      18.9      26.7      34.5    391.85
    28     8  2011    59     3     231.0     0.8     11.3    0.0    0.8    0.0      0.0      0.0   -9.90      0.3      0.3    100     14.5     14.5   100     14.8    14.8     100     16.8    1.64      7      0      0      0      0    93.9    93.9      0     1.02     14.5     14.5     14.5   100    34.3     9.318     1.9    0.172    0.192      99        0.02    0.000    0.000     231.0    231.0    1.64   155.7     691.8     191.0     191.0     119.1     119.1      40.3    0.000     0.000     0.000     0.000     0.000    1.64     0.00    0.00      0   -9.90   -9.00        9.5        9.5        9.5        9.5        9.5        9.5        9.5        9.5        9.5       10.3       11.7       11.7        0.0        0.0        0.0        0.0        0.0        0.0        0.0        0.0        0.0        0.0        0.0        0.0      0.8      14.2      19.5      26.5      33.4    391.85
    29     8  2011    60     3     228.9     4.3      7.6    0.0    4.3    0.0      0.0      0.0   -9.90      0.3      0.3    100     13.8     13.8   100     14.1    14.1     100     18.0    1.66      0      0      0      0      0    94.0    94.0      0     1.03     13.8     13.8     13.8   100    34.3     9.670     2.3    0.219    0.243      99        0.03    0.000    0.000     228.9    228.9    1.66   156.1     700.1     193.3     193.3     118.0     118.0      40.8    0.000     0.000     0.000     0.000     0.000    1.66     0.00    0.00      0   -9.90   -9.00        9.4        9.4        9.4        9.4        9.4        9.4        9.4        9.4        9.4        9.9       11.7       11.7        0.0        0.0        0.0        0.0        0.0        0.0        0.0        0.0        0.0        0.0        0.0        0.0      4.3      13.5      22.0      27.9      33.7    391.85
    30     8  2011    61     3     231.6     2.2     16.5    0.0    2.2    0.0      0.0      0.0   -9.90      0.2      0.2    100     15.8     15.8   100     16.0    16.0     100     17.2    1.68      0      0      0      0      0    95.3    95.3      0     1.03     15.8     15.8     15.8   100    34.3    10.024     2.8    0.277    0.308      99        0.04    0.000    0.000     231.6    231.6    1.68   160.9     708.4     195.5     195.5     126.0     126.0      41.3    0.000     0.000     0.000     0.000     0.000    1.68     0.00    0.00      0   -9.90   -9.00        9.6        9.6        9.6        9.6        9.6        9.6        9.6        9.6        9.6        9.8       11.7       11.7        0.0        0.0        0.0        0.0        0.0        0.0        0.0        0.0        0.0        0.0        0.0        0.0      2.2      15.3      20.4      27.9      35.5    391.85
    31     8  2011    62     3     232.3     2.5     14.6    0.0    2.5    0.0      0.0      0.0   -9.90      0.2      0.2    100     16.3     16.3   100     16.5    16.5     100     16.6    1.70     -9      0      0      0      0    95.4    95.4      0     1.03     16.3     16.3     16.3   100    34.3    10.378     3.4    0.349    0.388      99        0.05    0.000    0.000     232.3    232.3    1.70   163.6     716.6     197.8     197.8     129.2     129.2      41.8    0.000     0.000     0.000     0.000     0.000    1.70     0.00    0.00      0   -9.90   -9.00        9.6        9.6        9.7        9.7        9.7        9.7        9.7        9.7        9.7        9.7       11.7       11.7        0.0        0.0        0.0        0.0        0.0        0.0        0.0        0.0        0.0        0.0        0.0        0.0      2.5      15.8      19.3      27.5      35.8    391.85
     1     9  2011    63     3     230.2     1.5     11.7    0.0    1.5    0.0      0.0      0.0   -9.90      0.1      0.1    100     15.1     15.1   100     15.3    15.3     100     17.1    1.71     -9      0      0      0      0    95.5    95.5      0     1.03     15.1     15.1     15.1   100    34.3    10.731     4.1    0.438    0.487      99        0.06    0.000    0.000     230.2    230.2    1.71   163.4     724.8     200.1     200.1     126.6     126.6      42.3    0.000     0.000     0.000     0.000     0.000    1.71     0.00    0.00      0   -9.90   -9.00        9.5        9.5        9.6        9.6        9.6        9.6        9.6        9.6        9.6        9.6       11.7       11.7        0.0        0.0        0.0        0.0        0.0        0.0        0.0        0.0        0.0        0.0        0.0        0.0      1.5      14.7      20.1      27.4      34.6    391.85
     2     9  2011    64     3     227.8     5.7      5.8    0.0    5.7    0.0      0.0      0.0   -9.90      0.1      0.1    100     13.8     13.8   100     13.9    13.9     100     17.3    1.73     -9      0      0      0      0    95.6    95.6      0     1.03     13.8     13.8     13.8   100    34.3    11.083     4.9    0.547    0.608      99        0.07    0.000    0.000     227.8    227.8    1.73   163.0     732.9     202.3     202.3     123.5     123.5      42.7    0.000     0.000     0.000     0.000     0.000    1.73     0.00    0.00      0   -9.90   -9.00        9.4        9.4        9.4        9.4        9.4        9.4        9.4        9.4        9.4        9.5       11.7       11.7        0.0        0.0        0.0        0.0        0.0        0.0        0.0        0.0        0.0        0.0        0.0        0.0      5.7      13.5      20.5      26.8      33.0    391.85
     3     9  2011    65     3     228.9    12.5      3.3    0.0   12.5    0.1      0.0      0.0   -9.90      0.1      0.1    100     14.5     14.5   100     14.6    14.6     100     17.4    1.75     -9      0      0      0      0    95.6    95.6      0     1.02     14.5     14.5     14.5   100    34.3    11.434     5.9    0.680    0.756      99        0.08    0.000    0.000     228.9    228.9    1.75   166.0     741.1     204.6     204.6     127.4     127.4      43.2    0.000     0.000     0.000     0.000     0.000    1.75     0.00    0.00      0   -9.90   -9.00        9.5        9.5        9.5        9.5        9.5        9.5        9.5        9.5        9.5        9.5       11.7       11.7        0.0        0.0        0.0        0.0        0.0        0.0        0.0        0.0        0.0        0.0        0.0        0.0     12.5      14.1      20.9      27.5      34.2    391.85
     4     9  2011    66     3     230.7     3.5     13.9    0.0    3.5    0.0      0.0      0.0   -9.90      0.1      0.1    100     15.4     15.4   100     15.5    15.5     100     16.5    1.77     -9      0      0      0      0    95.7    95.7      0     1.02     15.4     15.4     15.4   100    34.3    11.785     7.1    0.840    0.934      99        0.10    0.000    0.000     230.7    230.7    1.77   169.5     749.2     206.8     206.8     132.3     132.3      43.7    0.000     0.000     0.000     0.000     0.000    1.77     0.00    0.00      0   -9.90   -9.00        9.6        9.6        9.6        9.6        9.6        9.6        9.6        9.6        9.6        9.6       11.7       11.7        0.0        0.0        0.0        0.0        0.0        0.0        0.0        0.0        0.0        0.0        0.0        0.0      3.5      15.1      18.9      26.8      34.7    391.85
     5     9  2011    67     3     226.5     7.6      1.4    0.0    7.6    0.0      0.0      0.0   -9.90      0.1      0.1    100     13.1     13.1   100     13.2    13.2     100     17.5    1.79     -9      0      0      0      0    95.7    95.7      0     1.02     13.1     13.1     13.1   100    34.3    12.135     8.5    1.032    1.147      99        0.12    0.000    0.000     226.5    226.5    1.79   167.2     757.2     209.0     209.0     125.3     125.3      44.2    0.000     0.000     0.000     0.000     0.000    1.79     0.00    0.00      0   -9.90   -9.00        9.3        9.3        9.4        9.4        9.4        9.4        9.4        9.4        9.4        9.4       11.7       11.7        0.0        0.0        0.0        0.0        0.0        0.0        0.0        0.0        0.0        0.0        0.0        0.0      7.6      12.9      21.0      26.8      32.5    391.85
     6     9  2011    68     3     226.2     4.2      8.5    0.0    4.2    0.0      0.0      0.0   -9.90      0.1      0.1    100     13.0     13.0   100     13.1    13.1     100     18.2    1.81     -9      0      0      0      0    95.8    95.8      0     1.02     13.0     13.0     13.0   100    34.3    12.483    10.0    1.252    1.391      99        0.15    0.000    0.000     226.2    226.2    1.81   169.1     765.3     211.2     211.2     126.4     126.4      44.6    0.000     0.000     0.000     0.000     0.000    1.81     0.00    0.00      0   -9.90   -9.00        9.3        9.3        9.4        9.4        9.4        9.4        9.4        9.4        9.4        9.4       11.6       11.7        0.0        0.0        0.0        0.0        0.0        0.0        0.0        0.0        0.0        0.0        0.0        0.0      4.2      12.8      22.4      27.9      33.3    391.85
     7     9  2011    69     4     229.4     2.4     16.0    0.0    2.4    0.0      0.0      0.0   -9.90      0.1      0.1    100     15.0     15.0   100     15.1    15.1     100     16.6    1.83     -9      0      0      0      0    95.8    95.8      0     1.01     15.0     15.0     15.0   100    34.3    12.831    11.6    1.483    1.647      99        0.17    0.000    0.000     229.4    229.4    1.83   175.0     773.3     213.5     213.5     135.6     135.6      45.1    0.000     0.000     0.000     0.000     0.000    1.83     0.00    0.00      0   -9.90   -9.00        9.5        9.5        9.6        9.6        9.6        9.6        9.6        9.6        9.6        9.6       11.4       11.7        0.0        0.0        0.0        0.0        0.0        0.0        0.0        0.0        0.0        0.0        0.0        0.0      2.4      14.8      19.1      26.8      34.5    391.85
     8     9  2011    70     4     226.1     3.4      7.0    0.0    3.4    0.0      0.0      0.0   -9.90      0.1      0.1    100     13.7     13.7   100     13.8    13.8     100     17.6    1.85     -9      0      0      0      0    95.8    95.8      0     1.01     13.7     13.7     13.7   100    34.3    13.178    13.1    1.724    1.915      99        0.20    0.000    0.000     226.1    226.1    1.85   174.5     781.3     215.7     215.7     131.9     131.9      45.6    0.000     0.000     0.000     0.000     0.000    1.85     0.00    0.00      0   -9.90   -9.00        9.4        9.4        9.4        9.4        9.4        9.4        9.4        9.4        9.4        9.4       11.0       11.7        0.0        0.0        0.0        0.0        0.0        0.0        0.0        0.0        0.0        0.0        0.0        0.0      3.4      13.5      21.2      27.4      33.7    391.85
     9     9  2011    71     4     228.5     2.8     15.2    0.0    2.8    0.0      0.0      0.0   -9.90      0.1      0.1    100     15.4     15.4   100     15.5    15.5     100     16.2    1.87     -9      0      0      0      0    95.9    95.9      0     1.01     15.4     15.4     15.4   100    34.3    13.524    14.6    1.975    2.195      99        0.22    0.000    0.000     228.5    228.5    1.87   179.8     789.2     217.9     217.9     140.3     140.3      46.1    0.000     0.000     0.000     0.000     0.000    1.87     0.00    0.00      0   -9.90   -9.00        9.6        9.6        9.6        9.6        9.6        9.6        9.6        9.6        9.6        9.6       10.6       11.7        0.0        0.0        0.0        0.0        0.0        0.0        0.0        0.0        0.0        0.0        0.0        0.0      2.8      15.3      18.5      26.8      35.0    391.85
    10     9  2011    72     4     223.0     2.8      4.8    0.0    2.8    0.0      0.0      0.0   -9.90      0.1      0.1    100     13.1     13.1   100     13.2    13.2     100     17.0    1.89     -9      0      0      0      0    95.9    95.9      0     1.01     13.1     13.1     13.1   100    34.3    13.869    16.1    2.237    2.486      99        0.25    0.000    0.000     223.0    223.0    1.89   177.0     797.2     220.0     220.0     132.4     132.4      46.5    0.000     0.000     0.000     0.000     0.000    1.89     0.00    0.00      0   -9.90   -9.00        9.3        9.3        9.4        9.4        9.4        9.4        9.4        9.4        9.4        9.4       10.2       11.7        0.0        0.0        0.0        0.0        0.0        0.0        0.0        0.0        0.0        0.0        0.0        0.0      2.8      13.0      20.1      26.2      32.4    391.85
    11     9  2011    73     4     223.8    10.8      4.0    0.0   10.8    0.0      0.0      0.0   -9.90      0.1      0.1    100     13.9     13.9   100     13.9    13.9     100     17.1    1.90     -9      0      0      0      0    95.9    95.9      0     1.00     13.9     13.9     13.9   100    34.3    14.213    17.7    2.510    2.789      99        0.27    0.000    0.000     223.8    223.8    1.90   180.1     805.1     222.2     222.2     137.0     137.0      47.0    0.000     0.000     0.000     0.000     0.000    1.90     0.00    0.00      0   -9.90   -9.00        9.4        9.4        9.5        9.5        9.5        9.5        9.5        9.5        9.5        9.5        9.9       11.7        0.0        0.0        0.0        0.0        0.0        0.0        0.0        0.0        0.0        0.0        0.0        0.0     10.8      13.8      20.3      27.0      33.7    391.85
    12     9  2011    74     4     224.9     6.7      9.1    0.0    6.7    0.0      0.0      0.0   -9.90      0.1      0.1    100     14.6     14.6   100     14.7    14.7     100     17.5    1.92     -9      0      0      0      0    95.9    95.9      0     1.00     14.6     14.6     14.6   100    34.3    14.557    19.2    2.793    3.103      99        0.30    0.000    0.000     224.9    224.9    1.92   183.3     813.0     224.4     224.4     141.7     141.7      47.5    0.000     0.000     0.000     0.000     0.000    1.92     0.00    0.00      0   -9.90   -9.00        9.5        9.5        9.5        9.5        9.5        9.5        9.5        9.5        9.5        9.5        9.7       11.7        0.0        0.0        0.0        0.0        0.0        0.0        0.0        0.0        0.0        0.0        0.0        0.0      6.7      14.6      21.0      28.2      35.3    391.85
    13     9  2011    75     4     226.1     2.6     14.0    0.0    2.6    0.0      0.0      0.0   -9.90      0.1      0.1    100     15.3     15.3   100     15.4    15.4     100     16.5    1.94     -9      0      0      0      0    95.9    95.9      0     1.00     15.3     15.3     15.3   100    34.3    14.899    20.7    3.086    3.428      99        0.32    0.000    0.000     226.1    226.1    1.94   186.3     820.8     226.6     226.6     145.9     145.9      47.9    0.000     0.000     0.000     0.000     0.000    1.94     0.00    0.00      0   -9.90   -9.00        9.6        9.6        9.6        9.6        9.6        9.6        9.6        9.6        9.6        9.6        9.7       11.7        0.0        0.0        0.0        0.0        0.0        0.0        0.0        0.0        0.0        0.0        0.0        0.0      2.6      15.3      19.0      27.2      35.5    391.85
    14     9  2011    76     4     226.6     9.4      6.6    0.0    9.4    0.0      0.0      0.0   -9.90      0.2      0.2    100     15.3     15.3   100     15.5    15.5     100     15.5    1.96     -9      0     -9      0      0    95.3    95.3      0     0.98     15.3     15.3     15.3   100    34.3    15.237    22.2    3.388    3.764      99        0.35    0.000    0.000     226.6    226.6    1.96   188.6     828.6     228.7     228.7     148.4     148.4      48.4    0.000     0.000     0.000     0.000     0.000    1.96     0.00    0.00      0   -9.90   -9.00        9.6        9.6        9.7        9.7        9.7        9.7        9.7        9.7        9.7        9.7        9.7       11.7        0.0        0.0        0.0        0.0        0.0        0.0        0.0        0.0        0.0        0.0        0.0        0.0      9.4      15.6      17.0      26.1      35.1    391.85
    15     9  2011    77     4     225.1    11.3      0.0    0.0   11.3    0.0      0.0      0.0   -9.90      0.2      0.2    100     12.6     12.6   100     12.8    12.8     100     17.3    1.98     -9      0     -9      0      0    94.6    94.6      0     0.97     12.6     12.6     12.6   100    34.3    15.569    23.8    3.700    4.111      99        0.38    0.000    0.000     225.1    225.1    1.98   188.8     836.4     230.9     230.9     139.1     139.1      48.8    0.000     0.000     0.000     0.000     0.000    1.98     0.00    0.00      0   -9.90   -9.00       18.1        6.8        6.9        8.7        9.7        9.7        9.7        9.7        9.7        9.7        9.7       11.7        0.0        0.0        0.0        0.0        0.0        0.0        0.0        0.0        0.0        0.0        0.0        0.0     11.3      13.0      20.6      26.8      32.9    391.85
    16     9  2011    78     4     223.2     7.7      4.1    0.0    7.6    0.0      0.0      0.0   -9.90      0.3      0.3    100     13.3     13.3   100     13.6    13.6     100     16.7    2.00     -9      0     -9      0      0    93.9    93.9      0     0.96     13.3     13.3     13.3   100    34.3    15.897    25.3    4.020    4.467      99        0.40    0.000    0.000     223.2    223.2    2.00   188.8     844.2     233.0     233.0     144.4     144.4      49.3    0.000     0.000     0.000     0.000     0.000    2.00     0.00    0.00      0   -9.90   -9.00        9.4        9.4        9.5        9.5        9.5        9.5        9.5        9.5        9.5        9.5        9.5       11.7        0.0        0.0        0.0        0.0        0.0        0.0        0.0        0.0        0.0        0.0        0.0        0.0      7.7      14.0      19.4      26.5      33.7    391.85
    17     9  2011    79     4     223.5    11.1      2.9    0.0   11.1    0.0      0.0      0.0   -9.90      0.4      0.4    100     13.3     13.3   100     13.7    13.7     100     16.6    2.01     -9      0     -9      0      0    93.0    93.0      0     0.94     13.3     13.3     13.3   100    34.3    16.219    26.8    4.349    4.832      99        0.43    0.000    0.000     223.5    223.5    2.01   190.9     852.0     235.2     235.2     146.6     146.6      49.8    0.000     0.000     0.000     0.000     0.000    2.01     0.00    0.00      0   -9.90   -9.00        9.5        9.5        9.5        9.5        9.5        9.5        9.5        9.5        9.5        9.5        9.5       11.7        0.0        0.0        0.0        0.0        0.0        0.0        0.0        0.0        0.0        0.0        0.0        0.0     11.1      14.2      19.3      26.7      34.1    391.85
    18     9  2011    80     4     222.6     6.6      5.6    0.0    6.6    0.0      0.0      0.0   -9.90      0.4      0.4    100     12.6     12.6   100     13.1    13.1     100     16.9    2.03     -9      0     -9      0      0    92.0    92.0      0     0.92     12.6     12.6     12.6   100    34.3    16.534    28.3    4.686    5.206     100        0.46    0.000    0.000     222.6    222.6    2.03   191.7     859.7     237.3     237.3     146.1     146.1      50.2    0.000     0.000     0.000     0.000     0.000    2.03     0.00    0.00      0   -9.90   -9.00        9.4        9.4        9.5        9.5        9.5        9.5        9.5        9.5        9.5        9.5        9.5       11.7        0.0        0.0        0.0        0.0        0.0        0.0        0.0        0.0        0.0        0.0        0.0        0.0      6.6      13.7      19.9      26.8      33.8    391.85
    19     9  2011    81     4     224.1     3.2     11.9    0.0    3.2    0.0      0.0      0.0   -9.90      0.6      0.6    100     13.0     13.0   100     13.6    13.6     100     16.2    2.05     -9      0     -9      0      0    90.9    90.9      0     0.90     13.0     13.0     13.0   100    34.3    16.843    29.9    5.030    5.589     100        0.49    0.000    0.000     224.1    224.1    2.05   195.0     867.4     239.4     239.4     150.5     150.5      50.7    0.000     0.000     0.000     0.000     0.000    2.05     0.00    0.00      0   -9.90   -9.00        9.5        9.5        9.5        9.5        9.5        9.5        9.5        9.5        9.5        9.5        9.5       11.7        0.0        0.0        0.0        0.0        0.0        0.0        0.0        0.0        0.0        0.0        0.0        0.0      3.2      14.5      18.4      26.3      34.2    391.85
    20     9  2011    82     4     221.0     5.7      3.4    0.0    5.7    0.0      0.0      0.0   -9.90      0.6      0.6    100     11.6     11.6   100     12.2    12.2     100     16.9    2.07     -9      0     -9      0      0    89.6    89.6      0     0.88     11.6     11.6     11.6   100    34.3    17.143    31.4    5.382    5.979     100        0.51    0.000    0.000     221.0    221.0    2.07   194.4     875.1     241.5     241.5     146.5     146.5      51.1    0.000     0.000     0.000     0.000     0.000    2.07     0.00    0.00      0   -9.90   -9.00        9.4        9.4        9.4        9.4        9.4        9.4        9.4        9.4        9.4        9.4        9.4       11.5        0.0        0.0        0.0        0.0        0.0        0.0        0.0        0.0        0.0        0.0        0.0        0.0      5.7      13.2      19.9      26.5      33.1    391.85
    21     9  2011    83     4     220.3     5.2      6.2    0.0    5.2    0.0      0.0      0.0   -9.90      0.7      0.7    100     11.3     11.3   100     12.1    12.1     100     17.1    2.09     -9      0     -9      0      0    88.2    88.2      0     0.85     11.3     11.3     11.3   100    34.3    17.436    32.9    5.739    6.377     100        0.54    0.000    0.000     220.3    220.3    2.09   196.5     882.8     243.7     243.7     147.9     147.9      51.6    0.000     0.000     0.000     0.000     0.000    2.09     0.00    0.00      0   -9.90   -9.00        9.4        9.4        9.4        9.4        9.4        9.4        9.4        9.4        9.4        9.4        9.4       11.2        0.0        0.0        0.0        0.0        0.0        0.0        0.0        0.0        0.0        0.0        0.0        0.0      5.2      13.3      20.2      26.8      33.4    391.85
    22     9  2011    84     4     220.9     3.1      9.9    0.0    3.1    0.0      0.0      0.0   -9.90      0.9      0.9    100     11.5     11.5   100     12.4    12.4     100     17.1    2.10     -9      0     -9      0      0    86.6    86.6      0     0.83     11.5     11.5     11.5   100    34.3    17.719    34.4    6.103    6.781     100        0.57    0.000    0.000     220.9    220.9    2.10   199.8     890.4     245.8     245.8     152.3     152.3      52.0    0.000     0.000     0.000     0.000     0.000    2.10     0.00    0.00      0   -9.90   -9.00        9.4        9.4        9.5        9.5        9.5        9.5        9.5        9.5        9.5        9.5        9.5       10.8        0.0        0.0        0.0        0.0        0.0        0.0        0.0        0.0        0.0        0.0        0.0        0.0      3.1      14.0      20.1      27.3      34.5    391.85
    23     9  2011    85     4     219.9     2.5      8.7    0.0    2.5    0.0      0.0      0.0   -9.90      1.1      1.1    100     11.1     11.1   100     12.2    12.2     100     17.0    2.12     -9      0     -9      0      0    84.8    84.8      0     0.80     11.1     11.1     11.1   100    34.3    17.991    36.0    6.471    7.190     100        0.60    0.000    0.000     219.9    219.9    2.12   201.4     898.0     247.9     247.9     153.6     153.6      52.5    0.000     0.000     0.000     0.000     0.000    2.12     0.00    0.00      0   -9.90   -9.00        9.4        9.4        9.5        9.5        9.5        9.5        9.5        9.5        9.5        9.5        9.5       10.4        0.0        0.0        0.0        0.0        0.0        0.0        0.0        0.0        0.0        0.0        0.0        0.0      2.5      14.0      20.0      27.2      34.5    391.85
    24     9  2011    86     4     219.0     4.4      6.5    0.0    4.4    0.0      0.0      0.0   -9.90      1.2      1.2    100     10.6     10.6   100     11.8    11.8     100     16.4    2.14     -9      0     -9      0      0    82.8    82.8      0     0.76     10.6     10.6     10.6   100    34.3    18.253    37.5    6.844    7.604     100        0.63    0.000    0.000     219.0    219.0    2.14   202.9     905.6     250.0     250.0     154.7     154.7      52.9    0.000     0.000     0.000     0.000     0.000    2.14     0.00    0.00      0   -9.90   -9.00        9.4        9.4        9.5        9.5        9.5        9.5        9.5        9.5        9.5        9.5        9.5       10.1        0.0        0.0        0.0        0.0        0.0        0.0        0.0        0.0        0.0        0.0        0.0        0.0      4.4      13.9      18.8      26.4      33.9    391.85
    25     9  2011    87     4     215.0     5.7      0.6    0.0    5.7    0.0      0.0      0.0   -9.90      1.2      1.2    100      9.1      9.1   100     10.3    10.3     100     17.5    2.16     -9      0     -9      0      0    80.5    80.5      0     0.73      9.1      9.1      9.1   100    34.3    18.502    39.0    7.220    8.022     100        0.65    0.000    0.000     215.0    215.0    2.16   201.2     913.2     252.1     252.1     149.4     149.4      53.4    0.000     0.000     0.000     0.000     0.000    2.16     0.00    0.00      0   -9.90   -9.00        9.3        9.3        9.3        9.3        9.3        9.3        9.3        9.3        9.3        9.3        9.3        9.8        0.0        0.0        0.0        0.0        0.0        0.0        0.0        0.0        0.0        0.0        0.0        0.0      5.7      12.5      20.9      26.9      32.8    391.85
[...]
    10    12  2015    -9     0     225.3     1.9      0.0    0.0    1.9    0.0      0.0      0.0   -9.90     12.1      7.0     58      0.0      0.0   100     12.1     7.0      58     16.6    2.28     -9     -9     -9      0     -9     0.0     0.0      0    -9.00      0.0      0.0      0.0   100    34.5    19.765    48.2    9.522   10.580      99        0.81    0.000    0.000     225.3    225.3    2.28   223.7     965.7     266.5     266.5     150.6     161.7      56.5    0.000     0.000     0.000     0.000     0.000    2.28     0.00    0.00      0   -9.90   -9.00        6.7       12.2       12.2       11.5        9.4        9.4        9.4        9.4        9.4        9.4        9.4        9.4        0.0        0.0        0.0        0.0        0.0        0.0        0.0        0.0        0.0        0.0        0.0        0.0      1.9      11.0      19.1      26.6      34.0    401.01
    11    12  2015    -9     0     223.4     6.3      0.0    0.0    6.3    0.0      0.0      0.0   -9.90     12.6      8.2     65      0.0      0.0   100     12.6     8.2      65     17.1    2.28     -9     -9     -9      0     -9     0.0     0.0      0    -9.00      0.0      0.0      0.0   100    34.5    19.765    48.2    9.522   10.580      99        0.81    0.000    0.000     223.4    223.4    2.28   221.8     965.7     266.5     266.5     152.8     161.7      56.5    0.000     0.000     0.000     0.000     0.000    2.28     0.00    0.00      0   -9.90   -9.00        4.8       11.8       11.8       11.8        9.9        9.4        9.4        9.4        9.4        9.4        9.4        9.4        0.0        0.0        0.0        0.0        0.0        0.0        0.0        0.0        0.0        0.0        0.0        0.0      6.3      11.4      20.1      27.8      35.4    401.01
    12    12  2015    -9     0     221.9     5.3      0.0    0.0    5.3    0.0      0.0      0.0   -9.90     12.3      6.9     56      0.0      0.0   100     12.3     6.9      56     16.4    2.28     -9     -9     -9      0     -9     0.0     0.0      0    -9.00      0.0      0.0      0.0   100    34.5    19.765    48.2    9.522   10.580      99        0.81    0.000    0.000     221.9    221.9    2.28   220.2     965.7     266.5     266.5     151.6     161.7      56.5    0.000     0.000     0.000     0.000     0.000    2.28     0.00    0.00      0   -9.90   -9.00        3.2       11.7       11.7       11.7       10.1        9.4        9.4        9.4        9.4        9.4        9.4        9.4        0.0        0.0        0.0        0.0        0.0        0.0        0.0        0.0        0.0        0.0        0.0        0.0      5.3      11.2      18.9      26.6      34.3    401.01
    13    12  2015    -9     0     220.3     2.8      0.0    0.0    2.8    0.0      0.0      0.0   -9.90     12.9      4.4     34      0.0      0.0   100     12.9     4.4      34     16.9    2.28     -9     -9     -9      0     -9     0.0     0.0      0    -9.00      0.0      0.0      0.0   100    34.5    19.765    48.2    9.522   10.580      99        0.81    0.000    0.000     220.3    220.3    2.28   218.7     965.7     266.5     266.5     154.2     161.7      56.5    0.000     0.000     0.000     0.000     0.000    2.28     0.00    0.00      0   -9.90   -9.00        1.6       11.7       11.7       11.7       10.2        9.4        9.4        9.4        9.4        9.4        9.4        9.4        0.0        0.0        0.0        0.0        0.0        0.0        0.0        0.0        0.0        0.0        0.0        0.0      2.8      11.7      19.8      27.9      35.9    401.01
    14    12  2015    -9     0     219.3     2.3      0.0    0.0    2.3    0.0      0.0      0.0   -9.90     12.4      3.3     26      0.0      0.0   100     12.4     3.3      26     17.1    2.28     -9     -9     -9      0     -9     0.0     0.0      0    -9.00      0.0      0.0      0.0   100    34.5    19.765    48.2    9.522   10.580      99        0.81    0.000    0.000     219.3    219.3    2.28   217.7     965.7     266.5     266.5     152.2     161.7      56.5    0.000     0.000     0.000     0.000     0.000    2.28     0.00    0.00      0   -9.90   -9.00        1.2       11.4       11.7       11.7       10.2        9.4        9.4        9.4        9.4        9.4        9.4        9.4        0.0        0.0        0.0        0.0        0.0        0.0        0.0        0.0        0.0        0.0        0.0        0.0      2.3      11.3      20.2      27.8      35.3    401.01
    15    12  2015    -9     0     218.4     1.2      0.0    0.0    1.2    0.0      0.0      0.0   -9.90     12.3      2.1     17      0.0      0.0   100     12.3     2.1      17     17.4    2.28     -9     -9     -9      0     -9     0.0     0.0      0    -9.00      0.0      0.0      0.0   100    34.5    19.765    48.2    9.522   10.580      99        0.81    0.000    0.000     218.4    218.4    2.28   216.8     965.7     266.5     266.5     151.8     161.7      56.5    0.000     0.000     0.000     0.000     0.000    2.28     0.00    0.00      0   -9.90   -9.00        1.2       10.7       11.7       11.7       10.2        9.4        9.4        9.4        9.4        9.4        9.4        9.4        0.0        0.0        0.0        0.0        0.0        0.0        0.0        0.0        0.0        0.0        0.0        0.0      1.2      11.2      20.7      28.1      35.4    401.01
    16    12  2015    -9     0     217.8     3.1      0.0    0.0    3.1    0.0      0.0      0.0   -9.90     10.9      3.6     33      0.0      0.0   100     10.9     3.6      33     17.6    2.28     -9     -9     -9      0     -9     0.0     0.0      0    -9.00      0.0      0.0      0.0   100    34.5    19.765    48.2    9.522   10.580      99        0.81    0.000    0.000     217.8    217.8    2.28   216.2     965.7     266.5     266.5     145.6     161.7      56.5    0.000     0.000     0.000     0.000     0.000    2.28     0.00    0.00      0   -9.90   -9.00        1.2       10.3       11.7       11.7       10.2        9.4        9.4        9.4        9.4        9.4        9.4        9.4        0.0        0.0        0.0        0.0        0.0        0.0        0.0        0.0        0.0        0.0        0.0        0.0      3.1       9.9      21.1      27.1      33.1    401.01
    17    12  2015    -9     0     221.2    11.2      0.0    0.0   11.2    0.0      0.0      0.0   -9.90     11.7      7.9     68      0.0      0.0   100     11.7     7.9      68     17.6    2.28     -9     -9     -9      0     -9     0.0     0.0      0    -9.00      0.0      0.0      0.0   100    34.5    19.765    48.2    9.522   10.580      99        0.81    0.000    0.000     221.2    221.2    2.28   219.5     965.7     266.5     266.5     149.1     161.7      56.5    0.000     0.000     0.000     0.000     0.000    2.28     0.00    0.00      0   -9.90   -9.00        4.5       10.3       11.7       11.7       10.2        9.4        9.4        9.4        9.4        9.4        9.4        9.4        0.0        0.0        0.0        0.0        0.0        0.0        0.0        0.0        0.0        0.0        0.0        0.0     11.2      10.7      21.1      27.8      34.5    401.01
    18    12  2015    -9     0     223.5    10.9      0.0    0.0   10.9    0.0      0.0      0.0   -9.90     12.6      8.6     68      0.0      0.0   100     12.6     8.6      68     16.6    2.28     -9     -9     -9      0     -9     0.0     0.0      0    -9.00      0.0      0.0      0.0   100    34.5    19.765    48.2    9.522   10.580      99        0.81    0.000    0.000     223.5    223.5    2.28   221.8     965.7     266.5     266.5     153.1     161.7      56.5    0.000     0.000     0.000     0.000     0.000    2.28     0.00    0.00      0   -9.90   -9.00        6.9       10.3       11.7       11.7       10.2        9.4        9.4        9.4        9.4        9.4        9.4        9.4        0.0        0.0        0.0        0.0        0.0        0.0        0.0        0.0        0.0        0.0        0.0        0.0     10.9      11.5      19.1      27.1      35.1    401.01
    19    12  2015    -9     0     221.4     5.9      0.0    0.0    5.9    0.0      0.0      0.0   -9.90     12.3      8.0     65      0.0      0.0   100     12.3     8.0      65     16.3    2.28     -9     -9     -9      0     -9     0.0     0.0      0    -9.00      0.0      0.0      0.0   100    34.5    19.765    48.2    9.522   10.580      99        0.81    0.000    0.000     221.4    221.4    2.28   219.7     965.7     266.5     266.5     151.7     161.7      56.5    0.000     0.000     0.000     0.000     0.000    2.28     0.00    0.00      0   -9.90   -9.00        4.7       10.3       11.7       11.7       10.2        9.4        9.4        9.4        9.4        9.4        9.4        9.4        0.0        0.0        0.0        0.0        0.0        0.0        0.0        0.0        0.0        0.0        0.0        0.0      5.9      11.2      18.6      26.4      34.3    401.01
    20    12  2015    -9     0     236.0    24.0      0.0    0.0   23.9    0.1      0.0      0.0   -9.90     11.5      9.2     80      0.0      0.0   100     11.5     9.2      80     17.6    2.28     -9     -9     -9      0     -9     0.0     0.0      0    -9.00      0.0      0.0      0.0   100    34.5    19.765    48.2    9.522   10.580      99        0.81    0.000    0.000     236.0    236.0    2.28   234.4     965.7     266.5     266.5     148.2     161.7      56.5    0.000     0.000     0.000     0.000     0.000    2.28     0.00    0.00      0   -9.90   -9.00       19.6       10.3       11.7       11.7       10.2        9.4        9.4        9.4        9.4        9.4        9.4        9.4        0.0        0.0        0.0        0.0        0.0        0.0        0.0        0.0        0.0        0.0        0.0        0.0     24.0      10.5      21.2      27.7      34.2    401.01
    21    12  2015    -9     0     236.7     9.9      0.0    0.0    9.7    0.2      0.0      0.0   -9.90     12.2      9.1     75      0.0      0.0   100     12.2     9.1      75     17.7    2.28     -9     -9     -9      0     -9     0.0     0.0      0    -9.00      0.0      0.0      0.0   100    34.5    19.765    48.2    9.522   10.580      99        0.81    0.000    0.000     236.7    236.7    2.28   235.0     965.7     266.5     266.5     151.1     161.7      56.5    0.000     0.000     0.000     0.000     0.000    2.28     0.00    0.00      0   -9.90   -9.00       13.3       12.1       12.2       12.0       11.8        9.8        9.4        9.4        9.4        9.4        9.4        9.4        0.0        0.0        0.0        0.0        0.0        0.0        0.0        0.0        0.0        0.0        0.0        0.0      9.9      11.1      21.5      28.5      35.5    401.01
    22    12  2015    -9     0     240.3    13.5      0.0    0.0   12.9    0.6      0.0      0.0   -9.90     12.3      9.3     75      0.0      0.0   100     12.3     9.3      75     16.9    2.28     -9     -9     -9      0     -9     0.0     0.0      0    -9.00      0.0      0.0      0.0   100    34.5    19.765    48.2    9.522   10.580      99        0.81    0.000    0.000     240.3    240.3    2.28   238.7     965.7     266.5     266.5     151.8     161.7      56.5    0.000     0.000     0.000     0.000     0.000    2.28     0.00    0.00      0   -9.90   -9.00       15.6       11.9       11.9       11.9       11.8       10.9        9.4        9.4        9.4        9.4        9.4        9.4        0.0        0.0        0.0        0.0        0.0        0.0        0.0        0.0        0.0        0.0        0.0        0.0     13.5      11.2      19.8      27.4      34.9    401.01
    23    12  2015    -9     0     235.9     3.2      0.0    0.0    3.2    0.0      0.0      0.0   -9.90     10.7      7.6     71      0.0      0.0   100     10.7     7.6      71     17.9    2.28     -9     -9     -9      0     -9     0.0     0.0      0    -9.00      0.0      0.0      0.0   100    34.5    19.765    48.2    9.522   10.580      99        0.81    0.000    0.000     235.9    235.9    2.28   234.2     965.7     266.5     266.5     144.7     161.7      56.5    0.000     0.000     0.000     0.000     0.000    2.28     0.00    0.00      0   -9.90   -9.00        7.7       12.0       12.1       11.9       11.9       11.8        9.9        9.4        9.4        9.4        9.4        9.4        0.0        0.0        0.0        0.0        0.0        0.0        0.0        0.0        0.0        0.0        0.0        0.0      3.2       9.8      21.8      27.4      33.1    401.01
    24    12  2015    -9     0     231.8     2.8      0.0    0.0    2.8    0.0      0.0      0.0   -9.90     11.5      6.9     59      0.0      0.0   100     11.5     6.9      59     16.9    2.28     -9     -9     -9      0     -9     0.0     0.0      0    -9.00      0.0      0.0      0.0   100    34.5    19.765    48.2    9.522   10.580      99        0.81    0.000    0.000     231.8    231.8    2.28   230.1     965.7     266.5     266.5     148.3     161.7      56.5    0.000     0.000     0.000     0.000     0.000    2.28     0.00    0.00      0   -9.90   -9.00        3.5       11.7       11.8       11.8       11.8       11.8       10.6        9.4        9.4        9.4        9.4        9.4        0.0        0.0        0.0        0.0        0.0        0.0        0.0        0.0        0.0        0.0        0.0        0.0      2.8      10.5      19.8      26.6      33.4    401.01
    25    12  2015    -9     0     231.9     7.2      0.0    0.0    7.2    0.0      0.0      0.0   -9.90     11.3      7.1     63      0.0      0.0   100     11.3     7.1      63     16.7    2.28     -9     -9     -9      0     -9     0.0     0.0      0    -9.00      0.0      0.0      0.0   100    34.5    19.765    48.2    9.522   10.580      99        0.81    0.000    0.000     231.9    231.9    2.28   230.3     965.7     266.5     266.5     147.3     161.7      56.5    0.000     0.000     0.000     0.000     0.000    2.28     0.00    0.00      0   -9.90   -9.00        3.7       11.7       11.7       11.7       11.7       11.7       10.8        9.4        9.4        9.4        9.4        9.4        0.0        0.0        0.0        0.0        0.0        0.0        0.0        0.0        0.0        0.0        0.0        0.0      7.2      10.3      19.4      26.1      32.8    401.01
    26    12  2015    -9     0     231.6     6.8      0.0    0.0    6.8    0.0      0.0      0.0   -9.90     12.5      7.1     57      0.0      0.0   100     12.5     7.1      57     16.7    2.28     -9     -9     -9      0     -9     0.0     0.0      0    -9.00      0.0      0.0      0.0   100    34.5    19.765    48.2    9.522   10.580      99        0.81    0.000    0.000     231.6    231.6    2.28   229.9     965.7     266.5     266.5     152.3     161.7      56.5    0.000     0.000     0.000     0.000     0.000    2.28     0.00    0.00      0   -9.90   -9.00        3.3       11.7       11.7       11.7       11.7       11.7       10.9        9.4        9.4        9.4        9.4        9.4        0.0        0.0        0.0        0.0        0.0        0.0        0.0        0.0        0.0        0.0        0.0        0.0      6.8      11.3      19.3      27.1      34.8    401.01
    27    12  2015    -9     0     233.7    10.0      0.0    0.0   10.0    0.0      0.0      0.0   -9.90     11.7      7.9     67      0.0      0.0   100     11.7     7.9      67     17.3    2.28     -9     -9     -9      0     -9     0.0     0.0      0    -9.00      0.0      0.0      0.0   100    34.5    19.765    48.2    9.522   10.580      99        0.81    0.000    0.000     233.7    233.7    2.28   232.1     965.7     266.5     266.5     148.9     161.7      56.5    0.000     0.000     0.000     0.000     0.000    2.28     0.00    0.00      0   -9.90   -9.00        5.5       11.7       11.7       11.7       11.7       11.7       10.9        9.4        9.4        9.4        9.4        9.4        0.0        0.0        0.0        0.0        0.0        0.0        0.0        0.0        0.0        0.0        0.0        0.0     10.0      10.6      20.6      27.3      34.0    401.01
    28    12  2015    -9     0     231.1     3.2      0.0    0.0    3.2    0.0      0.0      0.0   -9.90     12.4      5.9     47      0.0      0.0   100     12.4     5.9      47     16.6    2.28     -9     -9     -9      0     -9     0.0     0.0      0    -9.00      0.0      0.0      0.0   100    34.5    19.765    48.2    9.522   10.580      99        0.81    0.000    0.000     231.1    231.1    2.28   229.4     965.7     266.5     266.5     152.0     161.7      56.5    0.000     0.000     0.000     0.000     0.000    2.28     0.00    0.00      0   -9.90   -9.00        2.8       11.7       11.7       11.7       11.7       11.7       10.9        9.4        9.4        9.4        9.4        9.4        0.0        0.0        0.0        0.0        0.0        0.0        0.0        0.0        0.0        0.0        0.0        0.0      3.2      11.3      19.1      26.8      34.5    401.01
    29    12  2015    -9     0     229.8     0.9      0.0    0.0    0.9    0.0      0.0      0.0   -9.90     10.6      2.3     21      0.0      0.0   100     10.6     2.3      21     17.9    2.28     -9     -9     -9      0     -9     0.0     0.0      0    -9.00      0.0      0.0      0.0   100    34.5    19.765    48.2    9.522   10.580      99        0.81    0.000    0.000     229.8    229.8    2.28   228.1     965.7     266.5     266.5     144.1     161.7      56.5    0.000     0.000     0.000     0.000     0.000    2.28     0.00    0.00      0   -9.90   -9.00        1.4       11.7       11.7       11.7       11.7       11.7       10.9        9.4        9.4        9.4        9.4        9.4        0.0        0.0        0.0        0.0        0.0        0.0        0.0        0.0        0.0        0.0        0.0        0.0      0.9       9.6      21.8      27.3      32.8    401.01
    30    12  2015    -9     0     228.9     2.7      0.0    0.0    2.7    0.0      0.0      0.0   -9.90     12.0      3.5     29      0.0      0.0   100     12.0     3.5      29     16.9    2.28     -9     -9     -9      0     -9     0.0     0.0      0    -9.00      0.0      0.0      0.0   100    34.5    19.765    48.2    9.522   10.580      99        0.81    0.000    0.000     228.9    228.9    2.28   227.2     965.7     266.5     266.5     150.5     161.7      56.5    0.000     0.000     0.000     0.000     0.000    2.28     0.00    0.00      0   -9.90   -9.00        1.2       11.3       11.7       11.7       11.7       11.7       10.9        9.4        9.4        9.4        9.4        9.4        0.0        0.0        0.0        0.0        0.0        0.0        0.0        0.0        0.0        0.0        0.0        0.0      2.7      10.9      19.9      27.0      34.2    401.01
    31    12  2015    -9     0     231.2     8.9      0.0    0.0    8.9    0.0      0.0      0.0   -9.90     11.6      6.6     57      0.0      0.0   100     11.6     6.6      57     17.2    2.28     -9     -9     -9      0     -9     0.0     0.0      0    -9.00      0.0      0.0      0.0   100    34.5    19.765    48.2    9.522   10.580      99        0.81    0.000    0.000     231.2    231.2    2.28   229.6     965.7     266.5     266.5     148.4     161.7      56.5    0.000     0.000     0.000     0.000     0.000    2.28     0.00    0.00      0   -9.90   -9.00        3.5       11.3       11.7       11.7       11.7       11.7       10.9        9.4        9.4        9.4        9.4        9.4        0.0        0.0        0.0        0.0        0.0        0.0        0.0        0.0        0.0        0.0        0.0        0.0      8.9      10.5      20.4      27.0      33.6    401.01
