AquaCrop 7.1 (August 2023) - Output created on (date) : 16-01-2026   at (time) : 12:17:16

    RunNr     Day1   Month1    Year1     Rain      ETo       GD     CO2      Irri   Infilt   Runoff    Drain   Upflow        E     E/Ex       Tr      TrW   Tr/Trx    SaltIn   SaltOut    SaltUp  SaltProf     Cycle   SaltStr  FertStr  WeedStr  TempStr   ExpStr   StoStr  BioMass  Brelative   HI    Y(dry)  Y(fresh)    WPet      Bin     Bout     DayN   MonthN    YearN
                                           mm       mm  degC.day    ppm        mm       mm       mm       mm       mm       mm        %       mm       mm        %    ton/ha    ton/ha    ton/ha    ton/ha      days       %        %        %        %        %        %    ton/ha        %       %    ton/ha   ton/ha    kg/m3   ton/ha   ton/ha
   Tot(1)        1        7     2011   1024.9   2391.7   3128.5   391.85    625.3   1024.2      0.7      0.0      0.0    872.1       52    831.5    831.5      100     0.000     0.000     0.000     0.000       89        0       30        0        0        1        0    19.894      100     48.2    9.584   10.649     0.81    0.000    0.000       31       12     2011  cluster_238.PRM
   Tot(2)        1        7     2012    983.3   2404.8   3135.3   394.06    591.7    980.6      2.7      0.0      0.0    799.8       47    832.5    832.5      100     0.000     0.000     0.000     0.000       89        0       30        0        0        1        0    19.890       99     48.1    9.570   10.634     0.83    0.000    0.000       31       12     2012  cluster_238.PRM
   Tot(3)        1        7     2013   1054.0   2381.1   3133.5   396.74    581.9   1051.5      2.5      0.0      0.0    860.4       51    817.6    817.6      100     0.000     0.000     0.000     0.000       89        0       30        0        0        1        0    19.703       98     48.2    9.492   10.547     0.81    0.000    0.000       31       12     2013  cluster_238.PRM
   Tot(4)        1        7     2014   1139.5   2400.4   3112.1   398.81    567.5   1137.3      2.3      0.0      0.0    928.1       55    829.2    829.2      100     0.000     0.000     0.000     0.000       89        0       30        0        0        0        0    19.947      100     48.1    9.604   10.671     0.82    0.000    0.000       31       12     2014  cluster_238.PRM
   Tot(5)        1        7     2015   1140.1   2407.4   3132.9   401.01    544.7   1136.2      3.8      0.0      0.0    892.8       52    825.5    825.5      100     0.000     0.000     0.000     0.000       89        0       30        0        0        1        0    19.765       99     48.2    9.522   10.580     0.81    0.000    0.000       31       12     2015  cluster_238.PRM
